39
[]
Cl -2.08885 -0.16536 -0.04852
C -0.37886 -0.04519 -0.05087
N 0.26987 -1.22471 0.0226
C 1.61918 -1.16854 0.04054
C 2.35498 0.01254 -0.01917
C 3.86382 0.01526 0.03856
C 4.56004 -0.77312 -1.06981
C 1.63775 1.21261 -0.09305
C 0.24631 1.18596 -0.10976
H 2.10232 -2.13995 0.11584
H 4.14422 -0.3924 1.01953
H 4.22637 1.05269 0.03956
H 4.22973 -1.81389 -1.1261
H 2.15339 2.16861 -0.13317
H -0.3279 2.10393 -0.16253
C 4.294861746352863 -0.1435515424127985 -2.449999860491638
O 5.311046313412445 0.4885659508567865 -3.360733213549769
H 3.8004620333684 -0.9310466032775756 -3.038221649372722
H 3.518033312865705 0.6173334176611809 -2.2784860054853846
H 4.854916155203737 0.7993016327888237 -4.15155255116534
N 6.070381101856475 -0.8223729904159791 -0.7730880780291871
C 5.740239632689146 0.0750735486856895 -1.6599636779813323
N 6.190622332046607 0.7764819325742582 -2.6244442652044837
S 4.042013343225864 0.6623474739987429 -1.4864739191390088
C 7.415208310099953 -1.5676444923553765 -0.8603243569792105
H 7.366725664526124 -2.4608369003756216 -0.27316445390901967
H 7.616723188569081 -1.8216340751725113 -1.8800209010628832
H 8.196557295131134 -0.9383009826574318 -0.48840970203168244
C 3.291302580332257 -0.5365401916700607 -0.8776211326767096
H 2.733397271702735 -0.21193476765515573 -0.024232017593011523
H 2.622958118034913 -0.9460672607773617 -1.6059776771143175
H 3.9959327367812456 -1.2846002004103 -0.5796235385267821
C 7.693718659433114 0.8187228356643192 -2.9568854430139324
C 8.840240929946606 1.520299714085179 -2.205302738500137
H 9.763327343035781 1.3420079439512245 -2.716207359474522
H 8.65078897748682 2.5727294806606658 -2.1678921447094712
H 8.90321610479621 1.133620991692771 -1.2096051472752616
H 7.6307434922719946 1.2054015641664027 -3.952583032352263
H 7.883170611892898 -0.23370693091116923 -2.994296036804597