[]
 OpenBabel06192410403D

 60 60  0  0  1  0  0  0  0  0999 V2000
    2.5928   -1.7312    1.6019 C   0  0  0  0  0  0  0  0  0  0  0  0
    2.9730   -2.7846    0.5346 C   0  0  0  0  0  0  0  0  0  0  0  0
    3.0897   -2.3196   -0.9292 C   0  0  0  0  0  0  0  0  0  0  0  0
    3.4964   -3.3834   -1.9431 C   0  0  0  0  0  0  0  0  0  0  0  0
    4.1422   -3.0516   -3.1508 C   0  0  0  0  0  0  0  0  0  0  0  0
    4.4588   -4.0336   -4.1007 C   0  0  0  0  0  0  0  0  0  0  0  0
    4.1138   -5.3588   -3.8666 C   0  0  0  0  0  0  0  0  0  0  0  0
    4.4815   -6.5628   -5.0388 Cl  0  0  0  0  0  0  0  0  0  0  0  0
    3.4570   -5.7136   -2.6960 C   0  0  0  0  0  0  0  0  0  0  0  0
    3.1459   -4.7329   -1.7480 C   0  0  0  0  0  0  0  0  0  0  0  0
    2.2415   -3.5986    0.5664 H   0  0  0  0  0  0  0  0  0  0  0  0
    3.9241   -3.2675    0.7995 H   0  0  0  0  0  0  0  0  0  0  0  0
    3.8245   -1.5094   -0.9475 H   0  0  0  0  0  0  0  0  0  0  0  0
    2.1236   -1.9280   -1.2696 H   0  0  0  0  0  0  0  0  0  0  0  0
    4.9608   -3.7627   -5.0248 H   0  0  0  0  0  0  0  0  0  0  0  0
    3.1711   -6.7470   -2.5161 H   0  0  0  0  0  0  0  0  0  0  0  0
    2.6066   -5.0629   -0.8629 H   0  0  0  0  0  0  0  0  0  0  0  0
    1.8449   -0.5055    1.1047 N   0  0  0  0  0  0  0  0  0  0  0  0
    0.7966    0.2071    1.8562 C   0  0  0  0  0  0  0  0  0  0  0  0
    0.1057    1.3099    1.2333 N   0  0  0  0  0  0  0  0  0  0  0  0
    0.5321   -0.0556    3.2598 S   0  0  0  0  0  0  0  0  0  0  0  0
    2.5314    0.3840    0.1547 C   0  0  0  0  0  0  0  0  0  0  0  0
    3.6238    0.2220    0.1332 H   0  0  0  0  0  0  0  0  0  0  0  0
    2.0747    0.3178   -0.8537 H   0  0  0  0  0  0  0  0  0  0  0  0
    2.4969    1.4439    0.4890 H   0  0  0  0  0  0  0  0  0  0  0  0
   -0.7569    2.2357    1.9445 C   0  0  0  0  0  0  0  0  0  0  0  0
   -0.1781    2.7510    2.7420 H   0  0  0  0  0  0  0  0  0  0  0  0
   -1.1482    3.0055    1.2465 H   0  0  0  0  0  0  0  0  0  0  0  0
   -1.6133    1.6937    2.3968 H   0  0  0  0  0  0  0  0  0  0  0  0
    0.2310    1.4837    0.2254 H   0  0  0  0  0  0  0  0  0  0  0  0
    1.7172   -2.5543    2.5243 N   0  0  0  0  0  0  0  0  0  0  0  0
    2.2312   -3.4717    3.5603 C   0  0  0  0  0  0  0  0  0  0  0  0
    1.3931   -4.2712    4.4331 N   0  0  0  0  0  0  0  0  0  0  0  0
    3.6518   -3.6941    3.7106 S   0  0  0  0  0  3  0  0  0  0  0  0
    0.3654   -2.8362    2.0106 C   0  0  0  0  0  0  0  0  0  0  0  0
   -0.4236   -2.5247    2.7167 H   0  0  0  0  0  0  0  0  0  0  0  0
    0.1517   -2.3005    1.0621 H   0  0  0  0  0  0  0  0  0  0  0  0
    0.2702   -3.9103    1.7489 H   0  0  0  0  0  0  0  0  0  0  0  0
    1.8647   -4.9017    5.1040 H   0  0  0  0  0  0  0  0  0  0  0  0
   -0.0503   -4.2803    4.5416 C   0  0  0  0  0  0  0  0  0  0  0  0
   -0.5227   -4.6756    3.6224 H   0  0  0  0  0  0  0  0  0  0  0  0
   -0.3575   -4.9750    5.3528 H   0  0  0  0  0  0  0  0  0  0  0  0
   -0.4251   -3.2712    4.8062 H   0  0  0  0  0  0  0  0  0  0  0  0
    4.6189   -1.3062   -3.6047 P   0  0  0  0  0  0  0  0  0  0  0  0
    3.4021   -0.3539   -3.4343 O   0  0  0  0  0  0  0  0  0  0  0  0
    5.9225   -0.4680   -2.7785 O   0  0  0  0  0  0  0  0  0  0  0  0
    6.3944   -1.2024   -1.6795 C   0  0  0  0  0  0  0  0  0  0  0  0
    7.4961   -1.0871   -1.6277 H   0  0  0  0  0  0  0  0  0  0  0  0
    5.9714   -0.7644   -0.7573 H   0  0  0  0  0  0  0  0  0  0  0  0
    6.2073   -2.2949   -1.7341 H   0  0  0  0  0  0  0  0  0  0  0  0
    5.0467   -1.1674   -5.3011 O   0  0  0  0  0  0  0  0  0  0  0  0
    3.8708   -1.1424   -6.0713 C   0  0  0  0  0  0  0  0  0  0  0  0
    3.1950   -1.9915   -5.8273 H   0  0  0  0  0  0  0  0  0  0  0  0
    3.3534   -0.1647   -5.9665 H   0  0  0  0  0  0  0  0  0  0  0  0
    4.1504   -1.2548   -7.1385 H   0  0  0  0  0  0  0  0  0  0  0  0
    3.8637   -1.1457    2.3293 C   0  0  0  0  0  0  0  0  0  0  0  0
    3.7073   -0.2845    3.4789 S   0  0  0  0  0  0  0  0  0  0  0  0
    5.2031   -1.3873    1.8898 N   0  0  0  0  0  4  0  0  0  0  0  0
    6.0045   -0.9803    2.3971 H   0  0  0  0  0  0  0  0  0  0  0  0
    5.4395   -1.9307    1.0553 H   0  0  0  0  0  0  0  0  0  0  0  0
  1  2  1  0  0  0  0
  2  3  1  0  0  0  0
  2 11  1  0  0  0  0
  2 12  1  0  0  0  0
  3  4  1  0  0  0  0
  3 13  1  0  0  0  0
  3 14  1  0  0  0  0
  4  5  2  0  0  0  0
  4 10  1  0  0  0  0
  5  6  1  0  0  0  0
  6  7  2  0  0  0  0
  6 15  1  0  0  0  0
  7  8  1  0  0  0  0
  7  9  1  0  0  0  0
  9 10  2  0  0  0  0
  9 16  1  0  0  0  0
 10 17  1  0  0  0  0
 18  1  1  0  0  0  0
 18 19  1  0  0  0  0
 19 20  1  0  0  0  0
 19 21  2  0  0  0  0
 22 18  1  0  0  0  0
 22 25  1  0  0  0  0
 22 23  1  0  0  0  0
 24 22  1  0  0  0  0
 26 20  1  0  0  0  0
 26 29  1  0  0  0  0
 26 27  1  0  0  0  0
 28 26  1  0  0  0  0
 30 20  1  0  0  0  0
 31  1  1  0  0  0  0
 31 32  1  0  0  0  0
 32 33  1  0  0  0  0
 32 34  2  0  0  0  0
 35 31  1  0  0  0  0
 35 38  1  0  0  0  0
 35 36  1  0  0  0  0
 37 35  1  0  0  0  0
 39 33  1  0  0  0  0
 40 33  1  0  0  0  0
 40 43  1  0  0  0  0
 40 41  1  0  0  0  0
 42 40  1  0  0  0  0
 44  5  1  0  0  0  0
 44 45  2  0  0  0  0
 46 44  1  0  0  0  0
 46 47  1  0  0  0  0
 47 48  1  0  0  0  0
 47 49  1  0  0  0  0
 47 50  1  0  0  0  0
 51 44  1  0  0  0  0
 51 52  1  0  0  0  0
 52 53  1  0  0  0  0
 52 54  1  0  0  0  0
 52 55  1  0  0  0  0
 56  1  1  0  0  0  0
 56 57  2  0  0  0  0
 58 56  1  0  0  0  0
 58 59  1  0  0  0  0
 58 60  1  0  0  0  0
M  END
