[]
 OpenBabel06192410393D

 46 47  0  0  1  0  0  0  0  0999 V2000
    2.8836    0.0330    0.0927 C   0  0  0  0  0  0  0  0  0  0  0  0
    3.6277    1.1208    0.0937 N   0  0  0  0  0  0  0  0  0  0  0  0
    4.9273    0.6688    0.0938 C   0  0  0  0  0  0  0  0  0  0  0  0
    6.1223    1.4043    0.0942 C   0  0  0  0  0  0  0  0  0  0  0  0
    7.3404    0.7135    0.0940 C   0  0  0  0  0  0  0  0  0  0  0  0
    7.3714   -0.6821    0.0933 C   0  0  0  0  0  0  0  0  0  0  0  0
    6.1921   -1.4352    0.0930 C   0  0  0  0  0  0  0  0  0  0  0  0
    4.9840   -0.7248    0.0931 C   0  0  0  0  0  0  0  0  0  0  0  0
    3.6648   -1.0883    0.0926 N   0  0  0  0  0  0  0  0  0  0  0  0
    6.0947    2.4888    0.0946 H   0  0  0  0  0  0  0  0  0  0  0  0
    8.2729    1.2737    0.0943 H   0  0  0  0  0  0  0  0  0  0  0  0
    8.3315   -1.1955    0.0928 H   0  0  0  0  0  0  0  0  0  0  0  0
    6.2233   -2.5203    0.0927 H   0  0  0  0  0  0  0  0  0  0  0  0
    1.3793    0.2194    0.4930 C   0  0  1  0  0  0  0  0  0  0  0  0
    1.3697    0.9919    1.7823 N   0  0  0  0  0  0  0  0  0  0  0  0
    0.7020    0.9858   -0.5636 N   0  0  0  0  0  0  0  0  0  0  0  0
    0.7348    0.4493   -1.4512 H   0  0  0  0  0  0  0  0  0  0  0  0
    0.5824    0.7471    2.4266 H   0  0  0  0  0  0  0  0  0  0  0  0
    0.4997   -1.0545    0.7741 C   0  0  0  0  0  0  0  0  0  0  0  0
    0.8626   -1.9145    2.0041 C   0  0  0  0  0  0  0  0  0  0  0  0
    0.1286   -2.7442    2.0868 H   0  0  0  0  0  0  0  0  0  0  0  0
    1.8627   -2.3616    1.9621 H   0  0  0  0  0  0  0  0  0  0  0  0
    0.8107   -1.3424    2.9502 H   0  0  0  0  0  0  0  0  0  0  0  0
    0.3785   -1.6892   -0.1008 H   0  0  0  0  0  0  0  0  0  0  0  0
   -0.5348   -0.6934    0.9720 H   0  0  0  0  0  0  0  0  0  0  0  0
    1.1969    1.8812   -0.7700 H   0  0  0  0  0  0  0  0  0  0  0  0
    1.4889    2.4628    1.7847 C   0  0  0  0  0  0  0  0  0  0  0  0
    0.1127    3.1365    1.7652 C   0  0  0  0  0  0  0  0  0  0  0  0
    0.2343    4.2378    1.8240 H   0  0  0  0  0  0  0  0  0  0  0  0
   -0.4441    2.8833    0.8416 H   0  0  0  0  0  0  0  0  0  0  0  0
   -0.4853    2.8076    2.6435 H   0  0  0  0  0  0  0  0  0  0  0  0
    2.1234    2.8454    0.9645 H   0  0  0  0  0  0  0  0  0  0  0  0
    1.9844    2.7608    2.7341 H   0  0  0  0  0  0  0  0  0  0  0  0
    3.3577   -2.5027    0.0675 C   0  0  0  0  0  0  0  0  0  0  0  0
    2.5336   -3.0816   -0.7462 N   0  0  0  0  0  0  0  0  0  0  0  0
    1.7763   -2.4700   -1.7258 N   0  0  0  0  0  0  0  0  0  0  0  0
    0.9023   -3.2332   -2.4483 C   0  0  0  0  0  0  0  0  0  0  0  0
    0.8700   -4.4404   -2.2615 O   0  0  0  0  0  0  0  0  0  0  0  0
    0.0492   -2.6974   -3.3706 N   0  0  0  0  0  0  0  0  0  0  0  0
    3.9960   -3.1699    0.6384 H   0  0  0  0  0  0  0  0  0  0  0  0
    1.8549   -1.4598   -1.8864 H   0  0  0  0  0  0  0  0  0  0  0  0
   -0.5673   -3.3366   -3.8969 H   0  0  0  0  0  0  0  0  0  0  0  0
   -0.0914   -1.2843   -3.6289 C   0  0  0  0  0  0  0  0  0  0  0  0
   -0.4705   -0.7850   -2.7177 H   0  0  0  0  0  0  0  0  0  0  0  0
    0.8738   -0.8461   -3.9567 H   0  0  0  0  0  0  0  0  0  0  0  0
   -0.8477   -1.1201   -4.4257 H   0  0  0  0  0  0  0  0  0  0  0  0
  1  2  2  0  0  0  0
  1  9  1  0  0  0  0
  2  3  1  0  0  0  0
  3  4  2  0  0  0  0
  3  8  1  0  0  0  0
  4  5  1  0  0  0  0
  4 10  1  0  0  0  0
  5  6  2  0  0  0  0
  5 11  1  0  0  0  0
  6  7  1  0  0  0  0
  6 12  1  0  0  0  0
  7  8  2  0  0  0  0
  7 13  1  0  0  0  0
  8  9  1  0  0  0  0
 14  1  1  0  0  0  0
 14 15  1  1  0  0  0
 14 16  1  0  0  0  0
 17 16  1  0  0  0  0
 18 15  1  0  0  0  0
 19 14  1  0  0  0  0
 19 25  1  0  0  0  0
 20 19  1  0  0  0  0
 20 23  1  0  0  0  0
 20 21  1  0  0  0  0
 22 20  1  0  0  0  0
 24 19  1  0  0  0  0
 26 16  1  0  0  0  0
 27 15  1  0  0  0  0
 27 33  1  0  0  0  0
 28 27  1  0  0  0  0
 28 31  1  0  0  0  0
 28 29  1  0  0  0  0
 30 28  1  0  0  0  0
 32 27  1  0  0  0  0
 34  9  1  0  0  0  0
 34 35  2  0  0  0  0
 35 36  1  0  0  0  0
 36 37  1  0  0  0  0
 37 38  2  0  0  0  0
 37 39  1  0  0  0  0
 40 34  1  0  0  0  0
 41 36  1  0  0  0  0
 42 39  1  0  0  0  0
 43 39  1  0  0  0  0
 43 46  1  0  0  0  0
 43 44  1  0  0  0  0
 45 43  1  0  0  0  0
M  END
