35
[]
O 2.94073 -0.04252 0.1053
C 3.521 0.65232 1.13871
N 2.65881 1.24938 2.02667
O 4.74414 0.71175 1.2271
H 1.6651 1.15138 1.88092
N 1.406989504978947 -0.1199239652161709 -0.0098030846736445
C 0.6648739551225766 -0.3413558024983305 -1.050548765471421
N -0.6474835254104079 -0.7346646024372485 -1.011612006750014
S 1.4347867519628377 -0.2396612522145358 -2.559849028409245
H 0.9098154008482586 -0.4006860687647715 1.4204383464815349
H -1.3011239793627594 -1.1471216437488918 -2.343615515014693
C -1.6326553258447047 0.0597827060215934 -0.134178249870583
C -2.767222040201064 1.0115305387054303 -0.556711595890381
H -3.255317983236088 1.3939320702306657 0.3153156010136102
H -2.3597359386316445 1.8233256118962584 -1.1222589807871597
H -3.4749150447142623 0.4786132881371538 -1.1567697727192805
H -0.924962326807422 0.5926999649057647 0.4658799260308264
H -2.0401414274141243 -0.7520123671692347 0.4313691350261959
C 3.146472083055862 2.0644478089493394 3.238878793716718
N 2.2362175041056895 2.8460988103679488 3.6759256601756016
N 4.103864802797762 2.3371880035731563 2.3565976727457603
H 4.940625142175643 1.2030124162168938 1.7360512429846242
C 1.026885140293727 3.4319828305193445 4.428159100517235
C -0.4385379364045985 3.558476024211333 3.9719413092463762
H -1.0155236194194321 4.016080742663602 4.7482050893536565
H -0.4865169278665382 4.161355560000794 3.0892554704014854
H -0.8317568348697177 2.585879910950408 3.761380870110721
H 1.4201040299651302 4.404578947865057 4.638719537206454
H 1.0748641317556675 2.829103294729883 5.310844939362126
H 3.031941013897603 0.6492443738661801 3.8352694974724786
H 4.995005395998111 3.5251473125319164 2.7642999212173107
C 2.0701943622399193 4.286078589349964 3.155834752268221
H 2.771820524894232 4.926332634783122 3.6484760838936703
H 2.2479093128362893 4.3069767211240935 2.100903161660036
H 1.075523326018061 4.625431687982492 3.356755145266937