38
[]
C 2.88363 0.03301 0.09269
N 3.62767 1.12077 0.09369
C 4.92732 0.6688 0.09378
C 6.12234 1.40434 0.09418
C 7.34045 0.71345 0.09395
C 7.37144 -0.68212 0.09329
C 6.19213 -1.43523 0.09305
C 4.98404 -0.72481 0.09308
N 3.66481 -1.08831 0.09256
H 6.09471 2.48883 0.09463
H 8.27294 1.27373 0.09432
H 8.33146 -1.19552 0.09276
H 6.22325 -2.52027 0.09266
C 1.3449956828675975 0.0978467430388774 0.0918931972539248
N 0.9347399672807256 1.1166422287384457 0.4455106546093056
S 1.9737189064045224 -1.3332352973019082 -0.440122283723266
C 0.2903150607637795 2.3227499065323025 1.153762593842328
H 0.9081531216914516 2.627475319066757 1.9724924332063731
H 0.1914845640819067 3.132164414119714 0.4609562108803378
H -0.6764219101930313 2.0466336938133494 1.5199312247105572
C 2.390678707378873 -2.60759801773379 -1.1975813130739523
H 2.7187337796431605 -3.347348541657547 -0.497546293695324
H 1.5547157525055528 -2.9843150122876656 -1.7490794912522656
H 3.1882749619493325 -2.3765774349238438 -1.8723921793070415
N 3.160888973959894 -2.5435292430987824 0.0918156682899185
C 3.8434410114559405 -3.5204074665381535 -0.45705563054063003
N 3.1710226364813785 -4.535789743143393 -1.159769833721789
N 5.1280152606836396 -3.679159203703221 -0.3911109251567554
H 1.621619960821594 -2.56778874691088 0.051043353331920116
H 5.983222246009697 -2.7235797346067434 0.4615841495861521
C 2.55288531105501 -4.019279748476593 -2.4722955181653488
C 1.1422067516310361 -4.251736067116277 -3.044615408391455
H 1.049195928743444 -3.743397857121905 -3.981547243769999
H 0.9847239597306523 -5.299994814422914 -3.190398731659606
H 0.4125535710859425 -3.873327398699452 -2.3595510931941033
H 3.2825384842950553 -4.397688419744744 -3.157359839568037
H 2.7103681029553934 -2.971021001169955 -2.326512194897198
H 4.014395911320333 -5.801098074215678 -1.4033193083804032