28
[]
C 2.88363 0.03301 0.09269
N 3.62767 1.12077 0.09369
C 4.92732 0.6688 0.09378
C 6.12234 1.40434 0.09418
C 7.34045 0.71345 0.09395
C 7.37144 -0.68212 0.09329
C 6.19213 -1.43523 0.09305
C 4.98404 -0.72481 0.09308
N 3.66481 -1.08831 0.09256
H 6.09471 2.48883 0.09463
H 8.27294 1.27373 0.09432
H 8.33146 -1.19552 0.09276
H 6.22325 -2.52027 0.09266
S 1.3449956828675975 0.0978467430388774 0.0918931972539247
O 1.249445308255668 -1.4876213627350974 0.1343961557980566
O 1.434569357593051 1.668693435727519 0.0624674455161038
O 1.9161211120874435 0.0395615822296211 -1.3370989595222722
C 2.438508128849701 -0.0137496690628431 -2.644144507773694
H 1.958559745072392 -0.8001910149654745 -3.188266127050494
H 2.2627450454749605 0.9196614139141536 -3.136833935809565
H 3.4910396083520188 -0.2012219019494519 -2.60020556316676
C 3.160888973959894 -2.5435292430987824 0.0918156682899185
S 3.2122468705141447 -3.600242993084862 -1.2768218417732382
O 2.6439106658255085 -3.0219566972975165 1.46128293697049
C 2.1710499905688927 -3.4595563518557695 2.7138833018620034
H 1.4611369157403566 -2.7545714128628918 3.093262321024503
H 1.7014121102022433 -4.414677777902403 2.603996511794387
H 2.9914005119252156 -3.541828509636176 3.3959062475643935