[]
 OpenBabel04292410463D

 47 48  0  0  1  0  0  0  0  0999 V2000
   -2.0888   -0.1654   -0.0485 Cl  0  0  0  0  0  0  0  0  0  0  0  0
   -0.3789   -0.0452   -0.0509 C   0  0  0  0  0  0  0  0  0  0  0  0
    0.2699   -1.2247    0.0226 N   0  0  0  0  0  0  0  0  0  0  0  0
    1.6192   -1.1685    0.0405 C   0  0  0  0  0  0  0  0  0  0  0  0
    2.3550    0.0125   -0.0192 C   0  0  0  0  0  0  0  0  0  0  0  0
    3.8638    0.0153    0.0386 C   0  0  0  0  0  0  0  0  0  0  0  0
    4.5600   -0.7731   -1.0698 C   0  0  1  0  0  0  0  0  0  0  0  0
    1.6378    1.2126   -0.0930 C   0  0  0  0  0  0  0  0  0  0  0  0
    0.2463    1.1860   -0.1098 C   0  0  0  0  0  0  0  0  0  0  0  0
    2.1023   -2.1399    0.1158 H   0  0  0  0  0  0  0  0  0  0  0  0
    4.1442   -0.3924    1.0195 H   0  0  0  0  0  0  0  0  0  0  0  0
    4.2264    1.0527    0.0396 H   0  0  0  0  0  0  0  0  0  0  0  0
    4.2297   -1.8139   -1.1261 H   0  0  0  0  0  0  0  0  0  0  0  0
    2.1534    2.1686   -0.1332 H   0  0  0  0  0  0  0  0  0  0  0  0
   -0.3279    2.1039   -0.1625 H   0  0  0  0  0  0  0  0  0  0  0  0
    4.4411   -0.2804   -2.4884 N   0  0  0  0  0  0  0  0  0  0  0  0
    3.5688    0.7273   -2.8454 C   0  0  0  0  0  0  0  0  0  0  0  0
    4.1788    0.9789   -6.1636 H   0  0  0  0  0  0  0  0  0  0  0  0
    3.4612    1.1819   -4.1567 C   0  0  0  0  0  0  0  0  0  0  0  0
    4.2508    0.6249   -5.1432 C   0  0  0  0  0  0  0  0  0  0  0  0
    5.7506   -0.7917   -5.6097 H   0  0  0  0  0  0  0  0  0  0  0  0
    5.2328   -0.8472   -3.4808 C   0  0  0  0  0  0  0  0  0  0  0  0
    2.7668    1.9761   -4.4024 H   0  0  0  0  0  0  0  0  0  0  0  0
    2.9470    1.2192   -2.1435 H   0  0  0  0  0  0  0  0  0  0  0  0
    5.1417   -0.3852   -4.8144 C   0  0  0  0  0  0  0  0  0  0  0  0
    6.0835   -1.7806   -3.1706 N   0  0  0  0  0  0  0  0  0  0  0  0
    7.0277   -2.4122   -4.0661 C   0  0  0  0  0  0  0  0  0  0  0  0
    6.4977   -2.9342   -4.8894 H   0  0  0  0  0  0  0  0  0  0  0  0
    7.7261   -1.6508   -4.4785 H   0  0  0  0  0  0  0  0  0  0  0  0
    7.6260   -3.1525   -3.4964 H   0  0  0  0  0  0  0  0  0  0  0  0
    5.9803   -0.8699   -0.6942 N   0  0  0  0  0  0  0  0  0  0  0  0
    7.0661    0.0973   -0.5766 C   0  0  0  0  0  0  0  0  0  0  0  0
    8.3349   -0.3568   -0.0478 N   0  0  0  0  0  0  0  0  0  0  0  0
    7.0373    1.3408   -0.9700 N   0  0  0  0  0  0  0  0  0  0  0  0
    6.2183   -1.8260   -0.4068 H   0  0  0  0  0  0  0  0  0  0  0  0
    6.0876    2.1726   -1.6632 C   0  0  0  0  0  0  0  0  0  0  0  0
    5.1805    2.3922   -1.0935 H   0  0  0  0  0  0  0  0  0  0  0  0
    6.5629    3.1637   -1.8109 H   0  0  0  0  0  0  0  0  0  0  0  0
    5.9065    1.7802   -2.6767 H   0  0  0  0  0  0  0  0  0  0  0  0
    8.8271   -1.6787   -0.4208 C   0  0  0  0  0  0  0  0  0  0  0  0
    9.0025   -1.7069   -1.5192 H   0  0  0  0  0  0  0  0  0  0  0  0
    9.7931   -1.9013    0.0801 H   0  0  0  0  0  0  0  0  0  0  0  0
    8.1495   -2.4970   -0.1234 H   0  0  0  0  0  0  0  0  0  0  0  0
    9.3580    0.6364    0.2511 C   0  0  0  0  0  0  0  0  0  0  0  0
    8.9229    1.4726    0.8395 H   0  0  0  0  0  0  0  0  0  0  0  0
   10.1723    0.1977    0.8663 H   0  0  0  0  0  0  0  0  0  0  0  0
    9.7890    1.0320   -0.6937 H   0  0  0  0  0  0  0  0  0  0  0  0
  1  2  1  0  0  0  0
  2  3  2  0  0  0  0
  2  9  1  0  0  0  0
  3  4  1  0  0  0  0
  4  5  2  0  0  0  0
  4 10  1  0  0  0  0
  5  6  1  0  0  0  0
  5  8  1  0  0  0  0
  6  7  1  0  0  0  0
  6 11  1  0  0  0  0
  6 12  1  0  0  0  0
  7 13  1  1  0  0  0
  8  9  2  0  0  0  0
  8 14  1  0  0  0  0
  9 15  1  0  0  0  0
 16  7  1  0  0  0  0
 16 17  1  0  0  0  0
 16 22  1  0  0  0  0
 17 19  2  0  0  0  0
 17 24  1  0  0  0  0
 18 20  1  0  0  0  0
 19 20  1  0  0  0  0
 19 23  1  0  0  0  0
 20 25  2  0  0  0  0
 21 25  1  0  0  0  0
 22 25  1  0  0  0  0
 22 26  2  0  0  0  0
 27 26  1  0  0  0  0
 27 30  1  0  0  0  0
 27 28  1  0  0  0  0
 29 27  1  0  0  0  0
 31  7  1  0  0  0  0
 31 32  1  0  0  0  0
 32 33  1  0  0  0  0
 32 34  2  0  0  0  0
 35 31  1  0  0  0  0
 36 34  1  0  0  0  0
 36 39  1  0  0  0  0
 36 37  1  0  0  0  0
 38 36  1  0  0  0  0
 40 33  1  0  0  0  0
 40 43  1  0  0  0  0
 40 41  1  0  0  0  0
 42 40  1  0  0  0  0
 44 33  1  0  0  0  0
 44 47  1  0  0  0  0
 44 45  1  0  0  0  0
 46 44  1  0  0  0  0
M  END
