[]
 OpenBabel04292410463D

 39 40  0  0  1  0  0  0  0  0999 V2000
   -2.0888   -0.1654   -0.0485 Cl  0  0  0  0  0  0  0  0  0  0  0  0
   -0.3789   -0.0452   -0.0509 C   0  0  0  0  0  0  0  0  0  0  0  0
    0.2699   -1.2247    0.0226 N   0  0  0  0  0  0  0  0  0  0  0  0
    1.6192   -1.1685    0.0405 C   0  0  0  0  0  0  0  0  0  0  0  0
    2.3550    0.0125   -0.0192 C   0  0  0  0  0  0  0  0  0  0  0  0
    3.8638    0.0153    0.0386 C   0  0  0  0  0  0  0  0  0  0  0  0
    4.5600   -0.7731   -1.0698 C   0  0  1  0  0  0  0  0  0  0  0  0
    1.6378    1.2126   -0.0930 C   0  0  0  0  0  0  0  0  0  0  0  0
    0.2463    1.1860   -0.1098 C   0  0  0  0  0  0  0  0  0  0  0  0
    2.1023   -2.1399    0.1158 H   0  0  0  0  0  0  0  0  0  0  0  0
    4.1442   -0.3924    1.0195 H   0  0  0  0  0  0  0  0  0  0  0  0
    4.2264    1.0527    0.0396 H   0  0  0  0  0  0  0  0  0  0  0  0
    4.2297   -1.8139   -1.1261 H   0  0  0  0  0  0  0  0  0  0  0  0
    2.1534    2.1686   -0.1332 H   0  0  0  0  0  0  0  0  0  0  0  0
   -0.3279    2.1039   -0.1625 H   0  0  0  0  0  0  0  0  0  0  0  0
    4.3118   -0.2084   -2.4869 C   0  0  0  0  0  0  0  0  0  0  0  0
    3.8851    0.5518   -5.1895 C   0  0  0  0  0  0  0  0  0  0  0  0
    4.4983    1.4303   -4.2995 C   0  0  0  0  0  0  0  0  0  0  0  0
    4.7257    1.0813   -2.9550 C   0  0  0  0  0  0  0  0  0  0  0  0
    3.6228    1.1962   -7.1951 I   0  0  0  0  0  0  0  0  0  0  0  0
    3.6871   -1.0775   -3.4142 C   0  0  0  0  0  0  0  0  0  0  0  0
    3.4774   -0.7137   -4.7506 C   0  0  0  0  0  0  0  0  0  0  0  0
    4.8085    2.3989   -4.6720 H   0  0  0  0  0  0  0  0  0  0  0  0
    5.4271    2.1117   -2.1022 C   0  0  0  0  0  0  0  0  0  0  0  0
    5.7257    3.0023   -2.6952 H   0  0  0  0  0  0  0  0  0  0  0  0
    4.7567    2.5082   -1.3212 H   0  0  0  0  0  0  0  0  0  0  0  0
    6.3540    1.6950   -1.6661 H   0  0  0  0  0  0  0  0  0  0  0  0
    3.3756   -2.0670   -3.1019 H   0  0  0  0  0  0  0  0  0  0  0  0
    2.8383   -1.6890   -5.7013 C   0  0  0  0  0  0  0  0  0  0  0  0
    3.5412   -1.9133   -6.5319 H   0  0  0  0  0  0  0  0  0  0  0  0
    2.5851   -2.6480   -5.2015 H   0  0  0  0  0  0  0  0  0  0  0  0
    1.9048   -1.2565   -6.1167 H   0  0  0  0  0  0  0  0  0  0  0  0
    6.0723   -0.9391   -0.8710 C   0  0  0  0  0  0  0  0  0  0  0  0
    6.7813   -0.3604    0.2584 S   0  0  0  0  0  0  0  0  0  0  0  0
    6.7258   -1.7119   -1.7881 O   0  0  0  0  0  0  0  0  0  0  0  0
    8.0572   -2.0880   -1.7615 C   0  0  0  0  0  0  0  0  0  0  0  0
    8.2736   -2.7200   -2.6466 H   0  0  0  0  0  0  0  0  0  0  0  0
    8.7118   -1.1917   -1.7915 H   0  0  0  0  0  0  0  0  0  0  0  0
    8.2665   -2.6800   -0.8446 H   0  0  0  0  0  0  0  0  0  0  0  0
  1  2  1  0  0  0  0
  2  3  2  0  0  0  0
  2  9  1  0  0  0  0
  3  4  1  0  0  0  0
  4  5  2  0  0  0  0
  4 10  1  0  0  0  0
  5  6  1  0  0  0  0
  5  8  1  0  0  0  0
  6  7  1  0  0  0  0
  6 11  1  0  0  0  0
  6 12  1  0  0  0  0
  7 13  1  1  0  0  0
  8  9  2  0  0  0  0
  8 14  1  0  0  0  0
  9 15  1  0  0  0  0
 16  7  1  0  0  0  0
 16 21  2  0  0  0  0
 17 22  2  0  0  0  0
 17 18  1  0  0  0  0
 18 19  2  0  0  0  0
 19 16  1  0  0  0  0
 20 17  1  0  0  0  0
 21 22  1  0  0  0  0
 23 18  1  0  0  0  0
 24 19  1  0  0  0  0
 24 27  1  0  0  0  0
 24 25  1  0  0  0  0
 26 24  1  0  0  0  0
 28 21  1  0  0  0  0
 29 22  1  0  0  0  0
 29 32  1  0  0  0  0
 29 30  1  0  0  0  0
 31 29  1  0  0  0  0
 33  7  1  0  0  0  0
 33 34  2  0  0  0  0
 35 33  1  0  0  0  0
 35 36  1  0  0  0  0
 36 37  1  0  0  0  0
 36 38  1  0  0  0  0
 36 39  1  0  0  0  0
M  END
