[]
 OpenBabel04292410463D

 26 25  0  0  0  0  0  0  0  0999 V2000
    2.9407   -0.0425    0.1053 O   0  0  0  0  0  0  0  0  0  0  0  0
    3.5210    0.6523    1.1387 C   0  0  0  0  0  0  0  0  0  0  0  0
    2.6588    1.2494    2.0267 N   0  0  0  0  0  0  0  0  0  0  0  0
    4.7441    0.7117    1.2271 O   0  0  0  0  0  0  0  0  0  0  0  0
    1.6651    1.1514    1.8809 H   0  0  0  0  0  0  0  0  0  0  0  0
    1.6698   -0.0830   -0.2808 N   0  0  0  0  0  0  0  0  0  0  0  0
    1.1024   -1.3634   -0.6237 C   0  0  0  0  0  0  0  0  0  0  0  0
   -0.2517   -1.4680   -1.1014 N   0  0  0  0  0  0  0  0  0  0  0  0
    1.8968   -2.5583   -0.4187 S   0  0  0  0  0  0  0  0  0  0  0  0
    0.9262    1.1461   -0.5122 C   0  0  0  0  0  0  0  0  0  0  0  0
    0.0196    1.1709    0.1289 H   0  0  0  0  0  0  0  0  0  0  0  0
    1.5493    2.0377   -0.2912 H   0  0  0  0  0  0  0  0  0  0  0  0
    0.6282    1.2088   -1.5800 H   0  0  0  0  0  0  0  0  0  0  0  0
   -0.8985   -2.7070   -1.5142 C   0  0  0  0  0  0  0  0  0  0  0  0
   -0.2964   -3.2582   -2.8090 C   0  0  0  0  0  0  0  0  0  0  0  0
   -0.8423   -4.1780   -3.1072 H   0  0  0  0  0  0  0  0  0  0  0  0
   -0.3949   -2.5068   -3.6207 H   0  0  0  0  0  0  0  0  0  0  0  0
    0.7731   -3.5208   -2.6947 H   0  0  0  0  0  0  0  0  0  0  0  0
   -1.9732   -2.5044   -1.7137 H   0  0  0  0  0  0  0  0  0  0  0  0
   -0.8399   -3.4597   -0.6984 H   0  0  0  0  0  0  0  0  0  0  0  0
   -0.8382   -0.6224   -1.1274 H   0  0  0  0  0  0  0  0  0  0  0  0
    3.1440    2.0103    3.1573 C   0  0  0  0  0  0  0  0  0  0  0  0
    2.0591    2.5045    3.8923 O   0  0  0  0  0  0  0  0  0  0  0  0
    3.7604    1.3459    3.8038 H   0  0  0  0  0  0  0  0  0  0  0  0
    3.7599    2.8596    2.7855 H   0  0  0  0  0  0  0  0  0  0  0  0
    2.4496    3.0103    4.6516 H   0  0  0  0  0  0  0  0  0  0  0  0
  1  2  1  0  0  0  0
  2  3  1  0  0  0  0
  2  4  2  0  0  0  0
  3  5  1  0  0  0  0
  6  1  1  0  0  0  0
  6  7  1  0  0  0  0
  7  8  1  0  0  0  0
  7  9  2  0  0  0  0
 10  6  1  0  0  0  0
 10 13  1  0  0  0  0
 10 11  1  0  0  0  0
 12 10  1  0  0  0  0
 14  8  1  0  0  0  0
 14 20  1  0  0  0  0
 15 14  1  0  0  0  0
 15 18  1  0  0  0  0
 15 16  1  0  0  0  0
 17 15  1  0  0  0  0
 19 14  1  0  0  0  0
 21  8  1  0  0  0  0
 22  3  1  0  0  0  0
 22 23  1  0  0  0  0
 22 24  1  0  0  0  0
 22 25  1  0  0  0  0
 23 26  1  0  0  0  0
M  END
