[]
 OpenBabel04292410473D

 54 56  0  0  1  0  0  0  0  0999 V2000
   -0.3206    1.2862    0.9649 C   0  0  0  0  0  0  0  0  0  0  0  0
   -1.2174    1.6315   -0.0620 C   0  0  0  0  0  0  0  0  0  0  0  0
   -2.4974    2.4239    0.1516 C   0  0  0  0  0  0  0  0  0  0  0  0
   -3.7361    1.5834    0.3513 C   0  0  0  0  0  0  0  0  0  0  0  0
   -4.1932    1.2910    1.6431 C   0  0  0  0  0  0  0  0  0  0  0  0
   -5.2702    0.4288    1.8371 C   0  0  0  0  0  0  0  0  0  0  0  0
   -5.9286   -0.1426    0.7431 C   0  0  0  0  0  0  0  0  0  0  0  0
   -5.5265    0.1969   -0.5540 C   0  0  0  0  0  0  0  0  0  0  0  0
   -4.4390    1.0581   -0.7431 C   0  0  0  0  0  0  0  0  0  0  0  0
   -0.8892    1.2531   -1.3789 C   0  0  0  0  0  0  0  0  0  0  0  0
    0.3203    0.6165   -1.6702 C   0  0  0  0  0  0  0  0  0  0  0  0
    1.2253    0.3538   -0.6496 C   0  0  0  0  0  0  0  0  0  0  0  0
    0.9082    0.6740    0.6692 C   0  0  0  0  0  0  0  0  0  0  0  0
   -2.6529    3.0768   -0.7178 H   0  0  0  0  0  0  0  0  0  0  0  0
   -2.3758    3.1303    0.9826 H   0  0  0  0  0  0  0  0  0  0  0  0
   -3.7034    1.7203    2.5125 H   0  0  0  0  0  0  0  0  0  0  0  0
   -5.5813    0.1930    2.8524 H   0  0  0  0  0  0  0  0  0  0  0  0
   -4.1292    1.3164   -1.7559 H   0  0  0  0  0  0  0  0  0  0  0  0
   -1.5715    1.4694   -2.1980 H   0  0  0  0  0  0  0  0  0  0  0  0
    0.5484    0.3445   -2.6968 H   0  0  0  0  0  0  0  0  0  0  0  0
    1.6168    0.4518    1.4605 H   0  0  0  0  0  0  0  0  0  0  0  0
   -0.5701    1.5215    2.4265 C   0  0  0  0  0  0  0  0  0  0  0  0
   -0.6046    2.6781    3.0067 N   0  0  0  0  0  0  0  0  0  0  0  0
   -0.4208    0.1108    3.5508 S   0  0  0  0  0  3  0  0  0  0  0  0
   -0.4866    4.0024    2.4295 C   0  0  0  0  0  0  0  0  0  0  0  0
   -1.6270    4.8853    2.9385 C   0  0  0  0  0  0  0  0  0  0  0  0
   -1.5191    5.9120    2.5319 H   0  0  0  0  0  0  0  0  0  0  0  0
   -2.6219    4.4911    2.6503 H   0  0  0  0  0  0  0  0  0  0  0  0
   -1.5947    4.9376    4.0483 H   0  0  0  0  0  0  0  0  0  0  0  0
   -0.4294    3.9825    1.3233 H   0  0  0  0  0  0  0  0  0  0  0  0
    0.4626    4.4510    2.7898 H   0  0  0  0  0  0  0  0  0  0  0  0
   -1.3220   -1.1006    2.5277 C   0  0  0  0  0  0  0  0  0  0  0  0
   -0.6545   -1.5127    1.7422 H   0  0  0  0  0  0  0  0  0  0  0  0
   -1.6584   -1.9309    3.1813 H   0  0  0  0  0  0  0  0  0  0  0  0
   -2.2309   -0.6489    2.0846 H   0  0  0  0  0  0  0  0  0  0  0  0
   -7.0538   -1.1053    1.0746 C   0  0  0  0  0  0  0  0  0  0  0  0
   -6.5439   -2.1659    1.8358 O   0  0  0  0  0  0  0  0  0  0  0  0
   -7.8178   -0.5500    1.6646 H   0  0  0  0  0  0  0  0  0  0  0  0
   -7.5533   -1.5307    0.1860 H   0  0  0  0  0  0  0  0  0  0  0  0
   -7.3294   -2.6793    2.1591 H   0  0  0  0  0  0  0  0  0  0  0  0
   -6.2259   -0.4510   -1.7579 C   0  0  0  0  0  0  0  0  0  0  0  0
   -7.9632    0.1309   -1.9030 S   0  0  0  0  0  0  0  0  0  0  0  0
   -5.4013   -0.2198   -3.3798 S   0  0  0  0  0  0  0  0  0  0  0  0
   -8.0277   -0.0109   -3.7199 C   0  0  0  0  0  0  0  0  0  0  0  0
   -7.0137   -1.9363   -3.8802 H   0  0  0  0  0  0  0  0  0  0  0  0
   -6.7839   -0.8397   -5.2891 H   0  0  0  0  0  0  0  0  0  0  0  0
   -6.8765   -0.8747   -4.1835 C   0  0  0  0  0  0  0  0  0  0  0  0
   -8.9823   -0.4712   -4.0519 H   0  0  0  0  0  0  0  0  0  0  0  0
   -7.9213    1.0079   -4.1484 H   0  0  0  0  0  0  0  0  0  0  0  0
   -6.2025   -1.5501   -1.5953 H   0  0  0  0  0  0  0  0  0  0  0  0
    2.5400   -0.3096   -0.9582 C   0  0  0  0  0  0  0  0  0  0  0  0
    4.1803    0.9585   -0.4265 I   0  0  0  0  0  0  0  0  0  0  0  0
    2.6356   -0.5372   -2.0414 H   0  0  0  0  0  0  0  0  0  0  0  0
    2.6168   -1.2646   -0.3968 H   0  0  0  0  0  0  0  0  0  0  0  0
  1  2  2  0  0  0  0
  1 13  1  0  0  0  0
  2  3  1  0  0  0  0
  2 10  1  0  0  0  0
  3  4  1  0  0  0  0
  3 14  1  0  0  0  0
  3 15  1  0  0  0  0
  4  5  2  0  0  0  0
  4  9  1  0  0  0  0
  5  6  1  0  0  0  0
  5 16  1  0  0  0  0
  6  7  2  0  0  0  0
  6 17  1  0  0  0  0
  7  8  1  0  0  0  0
  8  9  2  0  0  0  0
  9 18  1  0  0  0  0
 10 11  2  0  0  0  0
 10 19  1  0  0  0  0
 11 12  1  0  0  0  0
 11 20  1  0  0  0  0
 12 13  2  0  0  0  0
 13 21  1  0  0  0  0
 22  1  1  0  0  0  0
 22 23  2  3  0  0  0
 22 24  1  0  0  0  0
 25 23  1  0  0  0  0
 25 31  1  0  0  0  0
 26 25  1  0  0  0  0
 26 29  1  0  0  0  0
 26 27  1  0  0  0  0
 28 26  1  0  0  0  0
 30 25  1  0  0  0  0
 32 24  1  0  0  0  0
 32 35  1  0  0  0  0
 32 33  1  0  0  0  0
 34 32  1  0  0  0  0
 36  7  1  0  0  0  0
 36 37  1  0  0  0  0
 36 38  1  0  0  0  0
 36 39  1  0  0  0  0
 37 40  1  0  0  0  0
 41  8  1  0  0  0  0
 41 42  1  0  0  0  0
 41 43  1  0  0  0  0
 41 50  1  0  0  0  0
 42 44  1  0  0  0  0
 43 47  1  0  0  0  0
 44 47  1  0  0  0  0
 44 48  1  0  0  0  0
 44 49  1  0  0  0  0
 45 47  1  0  0  0  0
 46 47  1  0  0  0  0
 51 12  1  0  0  0  0
 51 52  1  0  0  0  0
 51 53  1  0  0  0  0
 51 54  1  0  0  0  0
M  END
