46
[]
C 2.88363 0.03301 0.09269
N 3.62767 1.12077 0.09369
C 4.92732 0.6688 0.09378
C 6.12234 1.40434 0.09418
C 7.34045 0.71345 0.09395
C 7.37144 -0.68212 0.09329
C 6.19213 -1.43523 0.09305
C 4.98404 -0.72481 0.09308
N 3.66481 -1.08831 0.09256
H 6.09471 2.48883 0.09463
H 8.27294 1.27373 0.09432
H 8.33146 -1.19552 0.09276
H 6.22325 -2.52027 0.09266
C 1.3449956828675975 0.0978467430388774 0.0918931972539249
N 1.1501037496019295 0.3278913874324045 1.3327188280070237
N 1.5480677172141266 0.9815885390031562 -0.8813334962415795
H 1.486055582549347 0.5464371071966426 -2.357273104271345
H 0.8899877352516805 0.169853250201711 2.8423424917918734
C 1.2958122425147989 -1.4063917468166138 -0.234369817555192
C 1.6454486850930574 -2.6108936536515213 0.6592349660570829
H 1.4971300373276013 -3.517257696540859 0.1102305821559679
H 2.668412595542714 -2.5427471918942675 0.9655043018715684
H 1.0137326529680877 -2.60957026218155 1.5228512602298387
H 1.927528279135123 -1.4077151465868498 -1.0979861084268268
H 0.2728483320651422 -1.4745382085738674 -0.5406391533696766
H 2.7493514300571333 1.9109403445073845 -0.6267305448365499
C 1.0491245557337696 1.756977380250008 1.897622738011426
C -0.2007857892829117 2.5606681074504105 2.3018570008774235
H 0.0951086878731524 3.525706736796458 2.6568878661817825
H -0.8418710953062045 2.674165063999533 1.4527232778114765
H -0.7240391688448033 2.040541024382335 3.0768239152715378
H 1.5723779284159192 2.2771044705719907 1.1226558238408502
H 1.690209861757062 1.6434804237008844 2.746756461077373
C 3.160888973959894 -2.5435292430987824 0.0918156682899185
N 1.9847684154805478 -3.2354273097290402 -0.3057721425337304
N 1.0244252839969807 -2.815454245987616 -0.7729909194937076
C -0.38746332495272595 -2.7887238050496803 -1.3743312137076624
O -0.1679738586141757 -4.048158458771911 -1.0990674725974652
N -0.9791844335678102 -1.2934431968524005 -1.8413069008354928
H 4.454660714626673 -3.0951103955859045 0.7191217461124022
H 0.5767824550485074 -1.395876080905723 -1.167976654569967
H -2.1863016308798517 -0.5625426641979234 -2.4579530581404114
C -0.03941662133784973 -0.09419111973132077 -1.6171843570847915
H -0.07095598627394262 0.19614152825121156 -0.5878096835984495
H 0.9604447170184347 -0.3707338262364752 -1.879293937183305
H -0.3547697669460037 0.7252520116932035 -2.228711419518774