[]
 OpenBabel06192410393D

 39 41  0  0  1  0  0  0  0  0999 V2000
    2.8836    0.0330    0.0927 C   0  0  0  0  0  0  0  0  0  0  0  0
    3.6277    1.1208    0.0937 N   0  0  0  0  0  0  0  0  0  0  0  0
    4.9273    0.6688    0.0938 C   0  0  0  0  0  0  0  0  0  0  0  0
    6.1223    1.4043    0.0942 C   0  0  0  0  0  0  0  0  0  0  0  0
    7.3404    0.7135    0.0940 C   0  0  0  0  0  0  0  0  0  0  0  0
    7.3714   -0.6821    0.0933 C   0  0  0  0  0  0  0  0  0  0  0  0
    6.1921   -1.4352    0.0930 C   0  0  0  0  0  0  0  0  0  0  0  0
    4.9840   -0.7248    0.0931 C   0  0  0  0  0  0  0  0  0  0  0  0
    3.6648   -1.0883    0.0926 N   0  0  0  0  0  0  0  0  0  0  0  0
    6.0947    2.4888    0.0946 H   0  0  0  0  0  0  0  0  0  0  0  0
    8.2729    1.2737    0.0943 H   0  0  0  0  0  0  0  0  0  0  0  0
    8.3315   -1.1955    0.0928 H   0  0  0  0  0  0  0  0  0  0  0  0
    6.2233   -2.5203    0.0927 H   0  0  0  0  0  0  0  0  0  0  0  0
    1.3550    0.2076    0.0105 C   0  0  2  0  0  0  0  0  0  0  0  0
    0.7580   -0.6219   -1.1834 C   0  0  2  0  0  0  0  0  0  0  0  0
    0.1568    1.7828   -0.1263 H   0  0  0  0  0  0  0  0  0  0  0  0
    1.1204    1.5800   -0.2482 O   0  0  0  0  0  0  0  0  0  0  0  0
    1.3689   -0.2348   -2.4617 N   0  0  0  0  0  0  0  0  0  0  0  0
    1.2032    0.7789   -2.6578 H   0  0  0  0  0  0  0  0  0  0  0  0
    2.3981   -0.4127   -2.4519 H   0  0  0  0  0  0  0  0  0  0  0  0
   -0.7685   -0.5099   -1.3243 C   0  0  0  0  0  0  0  0  0  0  0  0
   -1.0839    0.5327   -1.5339 H   0  0  0  0  0  0  0  0  0  0  0  0
   -1.1074   -1.1429   -2.1724 H   0  0  0  0  0  0  0  0  0  0  0  0
   -1.2825   -0.8766   -0.4131 H   0  0  0  0  0  0  0  0  0  0  0  0
    0.9582   -1.6897   -1.0239 H   0  0  0  0  0  0  0  0  0  0  0  0
    0.7247   -0.0950    1.3945 C   0  0  0  0  0  0  0  0  0  0  0  0
    1.1911    0.5597    2.1621 H   0  0  0  0  0  0  0  0  0  0  0  0
   -0.3614    0.1303    1.3977 H   0  0  0  0  0  0  0  0  0  0  0  0
    0.8309   -1.1213    1.7432 H   0  0  0  0  0  0  0  0  0  0  0  0
    3.3646   -2.5470    0.0097 C   0  0  0  0  0  0  0  0  0  0  0  0
    1.9372   -3.2067    0.9374 S   0  0  0  0  0  0  0  0  0  0  0  0
    3.3589   -3.1137   -1.7225 S   0  0  0  0  0  0  0  0  0  0  0  0
    1.5310   -4.4604   -0.3257 C   0  0  0  0  0  0  0  0  0  0  0  0
    3.5607   -5.2212   -0.5609 H   0  0  0  0  0  0  0  0  0  0  0  0
    2.5182   -5.3801   -2.0216 H   0  0  0  0  0  0  0  0  0  0  0  0
    2.7656   -4.7247   -1.1608 C   0  0  0  0  0  0  0  0  0  0  0  0
    1.2064   -5.4091    0.1504 H   0  0  0  0  0  0  0  0  0  0  0  0
    0.7200   -4.0671   -0.9746 H   0  0  0  0  0  0  0  0  0  0  0  0
    4.1948   -3.0974    0.4937 H   0  0  0  0  0  0  0  0  0  0  0  0
  1  2  2  0  0  0  0
  1  9  1  0  0  0  0
  2  3  1  0  0  0  0
  3  4  2  0  0  0  0
  3  8  1  0  0  0  0
  4  5  1  0  0  0  0
  4 10  1  0  0  0  0
  5  6  2  0  0  0  0
  5 11  1  0  0  0  0
  6  7  1  0  0  0  0
  6 12  1  0  0  0  0
  7  8  2  0  0  0  0
  7 13  1  0  0  0  0
  8  9  1  0  0  0  0
 14  1  1  0  0  0  0
 14 15  1  0  0  0  0
 14 17  1  6  0  0  0
 15 18  1  0  0  0  0
 15 25  1  1  0  0  0
 17 16  1  0  0  0  0
 18 19  1  0  0  0  0
 18 20  1  0  0  0  0
 21 15  1  0  0  0  0
 21 24  1  0  0  0  0
 21 22  1  0  0  0  0
 23 21  1  0  0  0  0
 26 14  1  0  0  0  0
 26 29  1  0  0  0  0
 26 27  1  0  0  0  0
 28 26  1  0  0  0  0
 30  9  1  0  0  0  0
 30 31  1  0  0  0  0
 30 32  1  0  0  0  0
 30 39  1  0  0  0  0
 31 33  1  0  0  0  0
 32 36  1  0  0  0  0
 33 36  1  0  0  0  0
 33 37  1  0  0  0  0
 33 38  1  0  0  0  0
 34 36  1  0  0  0  0
 35 36  1  0  0  0  0
M  END
