35
[]
C 2.90475 -0.98166 2.90618
S 3.56059 -1.2604 1.28381
P 5.68059 -1.2604 1.28381
O 5.59522 -2.80721 0.66494
C 6.10795 -3.84756 1.48427
C 5.90261 -5.17228 0.7755
S 5.63117 0.03841 -0.4684
C 7.13353 -0.40436 -1.34656
O 7.22894 -1.2604 1.28381
H 1.81155 -0.99074 2.85185
H 3.2288 -1.73748 3.62362
H 5.59185 -3.841 2.44886
H 7.17899 -3.6964 1.65424
H 4.8388 -5.35579 0.59913
H 6.31332 -5.99543 1.37004
H 6.39708 -5.16213 -0.20195
H 7.16692 -1.4698 -1.58406
H 8.03053 -0.10444 -0.7997
C 3.303477467433134 0.4086070651093576 3.435116569341327
N 4.294707951332545 0.4187038920033024 2.6540174771160103
N 5.184012585573855 1.4179771308176454 2.688687229154656
C 3.0657279543781955 1.4563383507190182 4.538445315543866
H 3.5495633533144444 2.3723575113465065 4.270653977857698
H 2.015082655672161 1.6267095261424394 4.648072480662677
H 3.467336884220846 1.097932119108029 5.4631913567822
C 5.205675011721925 2.3394035268977005 3.922423074423124
H 5.607494534711206 3.292560736470552 3.6486852414073017
H 4.209149561136147 2.4650474037106056 4.291273503451574
H 5.815417042995103 1.900830520557572 4.684504680015048
H 6.557952567835203 1.0292025401149871 2.1118482197528405
C 7.1810172696991605 0.35522269368009907 -2.6853576287244474
O 8.3500526430041 1.1167163763974783 -3.2467153641688826
H 6.898908396184879 -0.38473529973669884 -3.449203929666652
H 6.339763154706297 1.0642397038983706 -2.6477845901367107
H 8.08639118323359 1.4907842056635385 -4.095574895387012