[]
 OpenBabel04292410473D

 70 71  0  0  1  0  0  0  0  0999 V2000
    3.0825   -0.2686   -0.0191 C   0  0  1  0  0  0  0  0  0  0  0  0
    3.6128    0.5677   -1.1705 C   0  0  0  0  0  0  0  0  0  0  0  0
    5.1158    0.6206   -1.1942 C   0  0  0  0  0  0  0  0  0  0  0  0
    5.7835   -0.5278   -1.2504 N   0  0  0  0  0  0  0  0  0  0  0  0
    7.1123   -0.4087   -1.2501 C   0  0  0  0  0  0  0  0  0  0  0  0
    7.7885    0.7328   -1.2105 N   0  0  0  0  0  0  0  0  0  0  0  0
    7.0220    1.8141   -1.1715 C   0  0  0  0  0  0  0  0  0  0  0  0
    5.6904    1.8207   -1.1643 N   0  0  0  0  0  0  0  0  0  0  0  0
    3.4699   -1.2914   -0.0167 H   0  0  0  0  0  0  0  0  0  0  0  0
    3.2123    1.5893   -1.1281 H   0  0  0  0  0  0  0  0  0  0  0  0
    3.2857    0.1471   -2.1300 H   0  0  0  0  0  0  0  0  0  0  0  0
    3.3609    0.0910    1.4588 C   0  0  0  0  0  0  0  0  0  0  0  0
    3.0820    1.2017    2.0687 N   0  0  0  0  0  0  0  0  0  0  0  0
    4.2544   -1.1076    2.5095 S   0  0  0  0  0  0  0  0  0  0  0  0
    2.5046    2.4360    1.5949 C   0  0  0  0  0  0  0  0  0  0  0  0
    2.3961    2.4900    0.5179 H   0  0  0  0  0  0  0  0  0  0  0  0
    1.5228    2.5988    2.0834 H   0  0  0  0  0  0  0  0  0  0  0  0
    3.1809    3.2696    1.8778 H   0  0  0  0  0  0  0  0  0  0  0  0
    3.3630   -2.6440    2.1066 C   0  0  0  0  0  0  0  0  0  0  0  0
    3.8379   -3.1390    1.2325 H   0  0  0  0  0  0  0  0  0  0  0  0
    3.4387   -3.3265    2.9771 H   0  0  0  0  0  0  0  0  0  0  0  0
    2.2872   -2.4472    1.9299 H   0  0  0  0  0  0  0  0  0  0  0  0
    1.7318   -0.5877   -0.1775 O   0  0  0  0  0  0  0  0  0  0  0  0
   -0.5783   -0.6327   -0.4685 O   0  0  0  0  0  0  0  0  0  0  0  0
    0.5229    1.4347   -0.9212 S   0  0  0  0  0  0  0  0  0  0  0  0
   -0.5877   -1.5699   -0.2273 H   0  0  0  0  0  0  0  0  0  0  0  0
    0.5739    0.0664   -0.4934 C   0  0  0  0  0  0  0  0  0  0  0  0
    7.8213   -1.7670   -1.2543 C   0  0  2  0  0  0  0  0  0  0  0  0
    7.8803   -2.3611    0.1157 N   0  0  0  0  0  0  0  0  0  0  0  0
    9.0135   -1.9058   -2.1262 N   0  0  0  0  0  0  0  0  0  0  0  0
    8.8740   -1.3223   -2.9839 H   0  0  0  0  0  0  0  0  0  0  0  0
    7.6436   -3.8184    0.1879 C   0  0  0  0  0  0  0  0  0  0  0  0
    7.1877   -4.2526    1.5863 C   0  0  0  0  0  0  0  0  0  0  0  0
    7.9899   -4.1060    2.3377 H   0  0  0  0  0  0  0  0  0  0  0  0
    6.2904   -3.6728    1.8933 H   0  0  0  0  0  0  0  0  0  0  0  0
    6.9243   -5.3309    1.5780 H   0  0  0  0  0  0  0  0  0  0  0  0
    8.5504   -4.3796   -0.1201 H   0  0  0  0  0  0  0  0  0  0  0  0
    6.8088   -4.0946   -0.4933 H   0  0  0  0  0  0  0  0  0  0  0  0
    7.0840   -2.3861   -1.8155 H   0  0  0  0  0  0  0  0  0  0  0  0
   10.3424   -1.6558   -1.5742 C   0  0  0  0  0  0  0  0  0  0  0  0
   11.0734   -1.5411   -2.4016 H   0  0  0  0  0  0  0  0  0  0  0  0
   10.3767   -0.7406   -0.9911 H   0  0  0  0  0  0  0  0  0  0  0  0
   10.6775   -2.5144   -0.9646 H   0  0  0  0  0  0  0  0  0  0  0  0
    8.8915   -1.8507    1.0603 C   0  0  0  0  0  0  0  0  0  0  0  0
    9.8194   -2.4543    1.0334 H   0  0  0  0  0  0  0  0  0  0  0  0
    9.1111   -0.7808    0.8802 H   0  0  0  0  0  0  0  0  0  0  0  0
    8.4937   -1.9014    2.0950 H   0  0  0  0  0  0  0  0  0  0  0  0
    7.5192    3.1443   -0.5973 C   0  0  1  0  0  0  0  0  0  0  0  0
    6.5339    3.6228    0.4632 C   0  0  0  0  0  0  0  0  0  0  0  0
    6.6301    2.8728    1.5820 O   0  0  0  0  0  0  0  0  0  0  0  0
    8.6004    2.7358    0.3691 C   0  0  2  0  0  0  0  0  0  0  0  0
    7.5335    1.8587    1.3277 C   0  0  2  0  0  0  0  0  0  0  0  0
    5.9039    4.6669    0.4176 O   0  0  0  0  0  0  0  0  0  0  0  0
    6.5183    0.6664    0.6257 C   0  0  0  0  0  0  0  0  0  0  0  0
    6.8222   -0.2924    1.1016 H   0  0  0  0  0  0  0  0  0  0  0  0
    5.5838    0.8295    1.1697 H   0  0  0  0  0  0  0  0  0  0  0  0
    6.4145    0.7312   -2.5473 H   0  0  0  0  0  0  0  0  0  0  0  0
    7.9799    1.5030    2.2796 H   0  0  0  0  0  0  0  0  0  0  0  0
    7.7059    3.9160   -1.3745 H   0  0  0  0  0  0  0  0  0  0  0  0
    9.1850    3.9895    1.1249 C   0  0  0  0  0  0  0  0  0  0  0  0
    8.4534    4.5632    1.7274 H   0  0  0  0  0  0  0  0  0  0  0  0
    9.6234    4.7069    0.3925 H   0  0  0  0  0  0  0  0  0  0  0  0
    9.9848    3.6754    1.8268 H   0  0  0  0  0  0  0  0  0  0  0  0
    9.8732    2.1979   -0.4338 C   0  0  0  0  0  0  0  0  0  0  0  0
    9.9858    2.6841   -1.9251 C   0  0  0  0  0  0  0  0  0  0  0  0
   10.9219    2.3298   -2.4009 H   0  0  0  0  0  0  0  0  0  0  0  0
    9.1689    2.2954   -2.5740 H   0  0  0  0  0  0  0  0  0  0  0  0
    9.9555    3.7925   -2.0091 H   0  0  0  0  0  0  0  0  0  0  0  0
    9.9180    1.1224   -0.3926 H   0  0  0  0  0  0  0  0  0  0  0  0
   10.8227    2.5035    0.0548 H   0  0  0  0  0  0  0  0  0  0  0  0
  1  2  1  0  0  0  0
  1  9  1  6  0  0  0
  2  3  1  0  0  0  0
  2 10  1  0  0  0  0
  2 11  1  0  0  0  0
  3  4  2  0  0  0  0
  3  8  1  0  0  0  0
  4  5  1  0  0  0  0
  5  6  2  0  0  0  0
  6  7  1  0  0  0  0
  7  8  2  0  0  0  0
 12  1  1  0  0  0  0
 12 13  2  3  0  0  0
 12 14  1  0  0  0  0
 15 13  1  0  0  0  0
 15 18  1  0  0  0  0
 15 16  1  0  0  0  0
 17 15  1  0  0  0  0
 19 14  1  0  0  0  0
 19 22  1  0  0  0  0
 19 20  1  0  0  0  0
 21 19  1  0  0  0  0
 23  1  1  0  0  0  0
 23 27  1  0  0  0  0
 24 26  1  0  0  0  0
 27 24  1  0  0  0  0
 27 25  2  0  0  0  0
 28  5  1  0  0  0  0
 28 29  1  0  0  0  0
 28 30  1  0  0  0  0
 28 39  1  6  0  0  0
 31 30  1  0  0  0  0
 32 29  1  0  0  0  0
 32 38  1  0  0  0  0
 33 32  1  0  0  0  0
 33 36  1  0  0  0  0
 33 34  1  0  0  0  0
 35 33  1  0  0  0  0
 37 32  1  0  0  0  0
 40 30  1  0  0  0  0
 40 43  1  0  0  0  0
 40 41  1  0  0  0  0
 42 40  1  0  0  0  0
 44 29  1  0  0  0  0
 44 47  1  0  0  0  0
 44 45  1  0  0  0  0
 46 44  1  0  0  0  0
 48  7  1  0  0  0  0
 48 49  1  0  0  0  0
 48 51  1  0  0  0  0
 48 59  1  6  0  0  0
 49 50  1  0  0  0  0
 49 53  2  0  0  0  0
 50 52  1  0  0  0  0
 51 52  1  0  0  0  0
 51 60  1  1  0  0  0
 52 58  1  1  0  0  0
 54 52  1  0  0  0  0
 54 57  1  0  0  0  0
 54 55  1  0  0  0  0
 56 54  1  0  0  0  0
 60 63  1  0  0  0  0
 60 61  1  0  0  0  0
 62 60  1  0  0  0  0
 64 51  1  0  0  0  0
 64 70  1  0  0  0  0
 65 64  1  0  0  0  0
 65 68  1  0  0  0  0
 65 66  1  0  0  0  0
 67 65  1  0  0  0  0
 69 64  1  0  0  0  0
M  END
