[]
 OpenBabel06192410393D

 41 40  0  0  0  0  0  0  0  0999 V2000
    2.9047   -0.9817    2.9062 C   0  0  0  0  0  0  0  0  0  0  0  0
    3.5606   -1.2604    1.2838 S   0  0  0  0  0  0  0  0  0  0  0  0
    5.6806   -1.2604    1.2838 P   0  0  1  0  0  0  0  0  0  0  0  0
    5.5952   -2.8072    0.6649 O   0  0  0  0  0  0  0  0  0  0  0  0
    6.1079   -3.8476    1.4843 C   0  0  0  0  0  0  0  0  0  0  0  0
    5.9026   -5.1723    0.7755 C   0  0  0  0  0  0  0  0  0  0  0  0
    5.6312    0.0384   -0.4684 S   0  0  0  0  0  0  0  0  0  0  0  0
    7.1335   -0.4044   -1.3466 C   0  0  0  0  0  0  0  0  0  0  0  0
    7.2289   -1.2604    1.2838 O   0  0  0  0  0  0  0  0  0  0  0  0
    1.8115   -0.9907    2.8519 H   0  0  0  0  0  0  0  0  0  0  0  0
    3.2288   -1.7375    3.6236 H   0  0  0  0  0  0  0  0  0  0  0  0
    5.5918   -3.8410    2.4489 H   0  0  0  0  0  0  0  0  0  0  0  0
    7.1790   -3.6964    1.6542 H   0  0  0  0  0  0  0  0  0  0  0  0
    4.8388   -5.3558    0.5991 H   0  0  0  0  0  0  0  0  0  0  0  0
    6.3133   -5.9954    1.3700 H   0  0  0  0  0  0  0  0  0  0  0  0
    6.3971   -5.1621   -0.2019 H   0  0  0  0  0  0  0  0  0  0  0  0
    7.1669   -1.4698   -1.5841 H   0  0  0  0  0  0  0  0  0  0  0  0
    8.0305   -0.1044   -0.7997 H   0  0  0  0  0  0  0  0  0  0  0  0
    3.2921    0.3449    3.3893 N   0  0  0  0  0  0  0  0  0  0  0  0
    4.5939    0.2967    3.7827 O   0  0  0  0  0  0  0  0  0  0  0  0
    2.7280    0.5537    4.2467 H   0  0  0  0  0  0  0  0  0  0  0  0
    5.1570    1.5349    3.4366 C   0  0  0  0  0  0  0  0  0  0  0  0
    4.6587    2.3647    3.9848 H   0  0  0  0  0  0  0  0  0  0  0  0
    6.2251    1.5300    3.7369 H   0  0  0  0  0  0  0  0  0  0  0  0
    5.1199    1.6958    2.3367 H   0  0  0  0  0  0  0  0  0  0  0  0
    7.0617    0.4257   -3.0699 P   0  0  0  0  0  0  0  0  0  0  0  0
    8.2051   -0.2996   -3.7592 O   0  0  0  0  0  0  0  0  0  0  0  0
    6.9867    1.2512   -4.5448 O   0  0  0  0  0  0  0  0  0  0  0  0
    5.8392   -0.7959   -3.1938 O   0  0  0  0  0  0  0  0  0  0  0  0
    5.9844   -1.6001   -4.3428 C   0  0  0  0  0  0  0  0  0  0  0  0
    6.7480   -2.3869   -4.1677 H   0  0  0  0  0  0  0  0  0  0  0  0
    5.0150   -2.1059   -4.5303 H   0  0  0  0  0  0  0  0  0  0  0  0
    6.2000   -1.0093   -5.2579 H   0  0  0  0  0  0  0  0  0  0  0  0
    7.9447    1.5781   -2.1100 O   0  0  0  0  0  0  0  0  0  0  0  0
    9.3607    1.5356   -2.2541 C   0  0  0  0  0  0  0  0  0  0  0  0
    9.8423    2.3140   -3.4760 C   0  0  0  0  0  0  0  0  0  0  0  0
   10.9530    2.3172   -3.4945 H   0  0  0  0  0  0  0  0  0  0  0  0
    9.4860    1.8485   -4.4158 H   0  0  0  0  0  0  0  0  0  0  0  0
    9.4808    3.3621   -3.4261 H   0  0  0  0  0  0  0  0  0  0  0  0
    9.7938    2.0239   -1.3552 H   0  0  0  0  0  0  0  0  0  0  0  0
    9.7726    0.5035   -2.2353 H   0  0  0  0  0  0  0  0  0  0  0  0
  1  2  1  0  0  0  0
  1 10  1  0  0  0  0
  1 11  1  0  0  0  0
  2  3  1  0  0  0  0
  3  4  1  0  0  0  0
  3  7  1  0  0  0  0
  3  9  2  1  0  0  0
  4  5  1  0  0  0  0
  5  6  1  0  0  0  0
  5 12  1  0  0  0  0
  5 13  1  0  0  0  0
  6 14  1  0  0  0  0
  6 15  1  0  0  0  0
  6 16  1  0  0  0  0
  7  8  1  0  0  0  0
  8 17  1  0  0  0  0
  8 18  1  0  0  0  0
 19  1  1  0  0  0  0
 19 20  1  0  0  0  0
 21 19  1  0  0  0  0
 22 20  1  0  0  0  0
 22 25  1  0  0  0  0
 22 23  1  0  0  0  0
 24 22  1  0  0  0  0
 26  8  1  0  0  0  0
 26 27  2  0  0  0  0
 26 28  1  0  0  0  0
 29 26  1  0  0  0  0
 29 30  1  0  0  0  0
 30 31  1  0  0  0  0
 30 32  1  0  0  0  0
 30 33  1  0  0  0  0
 34 26  1  0  0  0  0
 35 34  1  0  0  0  0
 35 36  1  0  0  0  0
 35 40  1  0  0  0  0
 35 41  1  0  0  0  0
 36 39  1  0  0  0  0
 36 37  1  0  0  0  0
 36 38  1  0  0  0  0
M  END
