[]
 OpenBabel06192410403D

 84 85  0  0  1  0  0  0  0  0999 V2000
    3.0825   -0.2686   -0.0191 C   0  0  1  0  0  0  0  0  0  0  0  0
    3.6128    0.5677   -1.1705 C   0  0  0  0  0  0  0  0  0  0  0  0
    5.1158    0.6206   -1.1942 C   0  0  0  0  0  0  0  0  0  0  0  0
    5.7835   -0.5278   -1.2504 N   0  0  0  0  0  4  0  0  0  0  0  0
    7.1123   -0.4087   -1.2501 C   0  0  0  0  0  0  0  0  0  0  0  0
    7.7885    0.7328   -1.2105 N   0  0  0  0  0  0  0  0  0  0  0  0
    7.0220    1.8141   -1.1715 C   0  0  0  0  0  0  0  0  0  0  0  0
    5.6904    1.8207   -1.1643 N   0  0  0  0  0  0  0  0  0  0  0  0
    3.4699   -1.2914   -0.0167 H   0  0  0  0  0  0  0  0  0  0  0  0
    3.2123    1.5893   -1.1281 H   0  0  0  0  0  0  0  0  0  0  0  0
    3.2857    0.1471   -2.1300 H   0  0  0  0  0  0  0  0  0  0  0  0
    3.4614    0.2334    1.4404 C   0  0  2  0  0  0  0  0  0  0  0  0
    2.8941    1.5997    2.0704 C   0  0  2  0  0  0  0  0  0  0  0  0
    5.1341   -0.2507    2.3482 H   0  0  0  0  0  0  0  0  0  0  0  0
    4.8696    0.2212    1.5148 O   0  0  0  0  0  0  0  0  0  0  0  0
    2.4268    2.5566    1.0639 N   0  0  0  0  0  0  0  0  0  0  0  0
    3.2169    2.9415    0.4993 H   0  0  0  0  0  0  0  0  0  0  0  0
    1.6812    2.1524    0.4584 H   0  0  0  0  0  0  0  0  0  0  0  0
    4.0097    2.3186    2.8804 C   0  0  0  0  0  0  0  0  0  0  0  0
    4.8629    2.5941    2.2228 H   0  0  0  0  0  0  0  0  0  0  0  0
    3.6292    3.2640    3.3260 H   0  0  0  0  0  0  0  0  0  0  0  0
    4.3897    1.6754    3.7032 H   0  0  0  0  0  0  0  0  0  0  0  0
    1.7564    1.3610    3.1183 C   0  0  0  0  0  0  0  0  0  0  0  0
    0.4799    0.7086    2.6166 C   0  0  0  0  0  0  0  0  0  0  0  0
   -0.2522    0.6505    3.4498 H   0  0  0  0  0  0  0  0  0  0  0  0
    0.0316    1.3089    1.8020 H   0  0  0  0  0  0  0  0  0  0  0  0
    0.6781   -0.3248    2.2969 H   0  0  0  0  0  0  0  0  0  0  0  0
    1.4588    2.3439    3.5485 H   0  0  0  0  0  0  0  0  0  0  0  0
    2.1450    0.7348    3.9526 H   0  0  0  0  0  0  0  0  0  0  0  0
    3.0984   -0.5771    2.1202 H   0  0  0  0  0  0  0  0  0  0  0  0
    1.5715   -0.5882   -0.2393 C   0  0  0  0  0  0  0  0  0  0  0  0
    1.1486   -1.6806    0.3390 N   0  0  0  0  0  0  0  0  0  0  0  0
   -0.0582   -2.3800    0.2465 N   0  0  0  0  0  0  0  0  0  0  0  0
    0.7380    0.1701   -1.2691 C   0  0  0  0  0  0  0  0  0  0  0  0
   -0.1848    0.5734   -0.8305 H   0  0  0  0  0  0  0  0  0  0  0  0
    1.2194    1.0650   -1.6934 H   0  0  0  0  0  0  0  0  0  0  0  0
    0.5302   -0.4835   -2.1383 H   0  0  0  0  0  0  0  0  0  0  0  0
   -1.2975   -1.8973   -0.3689 C   0  0  0  0  0  0  0  0  0  0  0  0
   -2.0433   -0.9148    0.5314 C   0  0  0  0  0  0  0  0  0  0  0  0
   -2.9945   -0.6186    0.0394 H   0  0  0  0  0  0  0  0  0  0  0  0
   -2.2843   -1.4046    1.4981 H   0  0  0  0  0  0  0  0  0  0  0  0
   -1.4689   -0.0047    0.7472 H   0  0  0  0  0  0  0  0  0  0  0  0
   -2.0062   -2.7473   -0.4937 H   0  0  0  0  0  0  0  0  0  0  0  0
   -1.1462   -1.5363   -1.3969 H   0  0  0  0  0  0  0  0  0  0  0  0
   -0.1059   -3.7348    0.7898 C   0  0  0  0  0  0  0  0  0  0  0  0
    1.2064   -4.1786    1.4408 C   0  0  0  0  0  0  0  0  0  0  0  0
    1.0928   -5.2101    1.8354 H   0  0  0  0  0  0  0  0  0  0  0  0
    2.0297   -4.1723    0.6953 H   0  0  0  0  0  0  0  0  0  0  0  0
    1.4630   -3.5027    2.2845 H   0  0  0  0  0  0  0  0  0  0  0  0
   -0.3512   -4.4490   -0.0266 H   0  0  0  0  0  0  0  0  0  0  0  0
   -0.9060   -3.7875    1.5603 H   0  0  0  0  0  0  0  0  0  0  0  0
    7.9225   -1.6509   -1.3389 C   0  0  0  0  0  0  0  0  0  0  0  0
    9.4834   -4.0086   -1.2785 C   0  0  0  0  0  0  0  0  0  0  0  0
    8.5966   -3.7258   -0.2536 C   0  0  0  0  0  0  0  0  0  0  0  0
    7.8184   -2.5716   -0.2632 C   0  0  0  0  0  0  0  0  0  0  0  0
   10.6032   -5.8078   -1.0398 I   0  0  0  0  0  0  0  0  0  0  0  0
    8.8191   -1.9336   -2.4370 C   0  0  0  0  0  0  0  0  0  0  0  0
    9.6104   -3.1343   -2.3800 C   0  0  0  0  0  0  0  0  0  0  0  0
    8.5265   -4.4185    0.5763 H   0  0  0  0  0  0  0  0  0  0  0  0
    6.9091   -2.3275    0.9187 C   0  0  0  0  0  0  0  0  0  0  0  0
    6.9849   -3.1334    1.6795 H   0  0  0  0  0  0  0  0  0  0  0  0
    7.1885   -1.3723    1.4102 H   0  0  0  0  0  0  0  0  0  0  0  0
    5.8513   -2.2878    0.5899 H   0  0  0  0  0  0  0  0  0  0  0  0
    8.9581   -1.0962   -3.7325 C   0  0  0  0  0  0  0  0  0  0  0  0
    8.1490    0.1691   -4.0069 C   0  0  0  0  0  0  0  0  0  0  0  0
    8.3244    0.4806   -5.0590 H   0  0  0  0  0  0  0  0  0  0  0  0
    7.0601   -0.0094   -3.8896 H   0  0  0  0  0  0  0  0  0  0  0  0
    8.5128    1.0183   -3.4042 H   0  0  0  0  0  0  0  0  0  0  0  0
    8.6553   -1.7746   -4.5577 H   0  0  0  0  0  0  0  0  0  0  0  0
   10.0185   -0.8106   -3.8756 H   0  0  0  0  0  0  0  0  0  0  0  0
   10.6074   -3.5006   -3.4795 C   0  0  0  0  0  0  0  0  0  0  0  0
   11.9759   -2.8701   -3.2204 C   0  0  0  0  0  0  0  0  0  0  0  0
   12.6799   -3.1669   -4.0262 H   0  0  0  0  0  0  0  0  0  0  0  0
   11.9178   -1.7640   -3.1967 H   0  0  0  0  0  0  0  0  0  0  0  0
   12.3816   -3.2221   -2.2485 H   0  0  0  0  0  0  0  0  0  0  0  0
   10.2411   -3.2332   -4.4882 H   0  0  0  0  0  0  0  0  0  0  0  0
   10.7404   -4.5973   -3.5445 H   0  0  0  0  0  0  0  0  0  0  0  0
    7.7408    3.1207   -1.2016 C   0  0  0  0  0  0  0  0  0  0  0  0
    7.0025    4.3665   -1.1637 S   0  0  0  0  0  0  0  0  0  0  0  0
    9.1055    3.0929   -1.2927 O   0  0  0  0  0  0  0  0  0  0  0  0
    9.9867    4.1451   -1.4876 C   0  0  0  0  0  0  0  0  0  0  0  0
   10.5826    3.9471   -2.4027 H   0  0  0  0  0  0  0  0  0  0  0  0
    9.4814    5.1241   -1.6144 H   0  0  0  0  0  0  0  0  0  0  0  0
   10.6766    4.2089   -0.6219 H   0  0  0  0  0  0  0  0  0  0  0  0
  1  2  1  0  0  0  0
  1  9  1  6  0  0  0
  2  3  1  0  0  0  0
  2 10  1  0  0  0  0
  2 11  1  0  0  0  0
  3  4  2  0  0  0  0
  3  8  1  0  0  0  0
  4  5  1  0  0  0  0
  5  6  2  0  0  0  0
  6  7  1  0  0  0  0
  7  8  2  0  0  0  0
 12  1  1  0  0  0  0
 12 13  1  0  0  0  0
 12 15  1  0  0  0  0
 12 30  1  1  0  0  0
 13 16  1  6  0  0  0
 15 14  1  0  0  0  0
 16 17  1  0  0  0  0
 16 18  1  0  0  0  0
 19 13  1  0  0  0  0
 19 22  1  0  0  0  0
 19 20  1  0  0  0  0
 21 19  1  0  0  0  0
 23 13  1  0  0  0  0
 23 29  1  0  0  0  0
 24 23  1  0  0  0  0
 24 27  1  0  0  0  0
 24 25  1  0  0  0  0
 26 24  1  0  0  0  0
 28 23  1  0  0  0  0
 31  1  1  0  0  0  0
 31 32  2  0  0  0  0
 32 33  1  0  0  0  0
 34 31  1  0  0  0  0
 34 37  1  0  0  0  0
 34 35  1  0  0  0  0
 36 34  1  0  0  0  0
 38 33  1  0  0  0  0
 38 44  1  0  0  0  0
 39 38  1  0  0  0  0
 39 42  1  0  0  0  0
 39 40  1  0  0  0  0
 41 39  1  0  0  0  0
 43 38  1  0  0  0  0
 45 33  1  0  0  0  0
 45 51  1  0  0  0  0
 46 45  1  0  0  0  0
 46 49  1  0  0  0  0
 46 47  1  0  0  0  0
 48 46  1  0  0  0  0
 50 45  1  0  0  0  0
 52  5  1  0  0  0  0
 52 57  2  0  0  0  0
 53 58  2  0  0  0  0
 53 54  1  0  0  0  0
 54 55  2  0  0  0  0
 55 52  1  0  0  0  0
 56 53  1  0  0  0  0
 57 58  1  0  0  0  0
 59 54  1  0  0  0  0
 60 55  1  0  0  0  0
 60 63  1  0  0  0  0
 60 61  1  0  0  0  0
 62 60  1  0  0  0  0
 64 57  1  0  0  0  0
 64 70  1  0  0  0  0
 65 64  1  0  0  0  0
 65 68  1  0  0  0  0
 65 66  1  0  0  0  0
 67 65  1  0  0  0  0
 69 64  1  0  0  0  0
 71 58  1  0  0  0  0
 71 77  1  0  0  0  0
 72 71  1  0  0  0  0
 72 75  1  0  0  0  0
 72 73  1  0  0  0  0
 74 72  1  0  0  0  0
 76 71  1  0  0  0  0
 78  7  1  0  0  0  0
 78 79  2  0  0  0  0
 80 78  1  0  0  0  0
 80 81  1  0  0  0  0
 81 82  1  0  0  0  0
 81 83  1  0  0  0  0
 81 84  1  0  0  0  0
M  END
