57
[]
C 2.90475 -0.98166 2.90618
S 3.56059 -1.2604 1.28381
P 5.68059 -1.2604 1.28381
O 5.59522 -2.80721 0.66494
C 6.10795 -3.84756 1.48427
C 5.90261 -5.17228 0.7755
S 5.63117 0.03841 -0.4684
C 7.13353 -0.40436 -1.34656
O 7.22894 -1.2604 1.28381
H 1.81155 -0.99074 2.85185
H 3.2288 -1.73748 3.62362
H 5.59185 -3.841 2.44886
H 7.17899 -3.6964 1.65424
H 4.8388 -5.35579 0.59913
H 6.31332 -5.99543 1.37004
H 6.39708 -5.16213 -0.20195
H 7.16692 -1.4698 -1.58406
H 8.03053 -0.10444 -0.7997
C 3.303477467433135 0.4086070651093576 3.4351165693413264
C 3.18034277291292 -0.1601804435834445 4.773908049356213
O 4.426252541935858 -0.2106549391467283 5.3247169297774
C 4.607396213191533 0.6558294410846961 3.200472751445027
C 5.36584675544629 0.2134675702335703 4.402905739253728
O 2.1826235280396986 -0.3136223770547558 5.454403685978663
C 6.334882963614663 -0.9357052335992856 4.068285515433362
H 7.2931912730814945 -0.7306367416668405 4.497810944323911
H 5.953381840539384 -1.8518453934162424 4.468340633014797
H 6.43137034916372 -1.0230892448382267 3.006233624430563
H 6.183343942333323 1.367158431218806 5.0130661662816784
H 2.0766421664364376 0.6686817396659339 2.5413401387488466
C 5.289549954020226 -0.3725097250290897 2.279177558084168
H 5.859025697604475 -1.0586930385091715 2.8705740699194147
H 4.544278776418832 -0.9085726781185726 1.729534602519514
H 5.939297097763249 0.1352225748146734 1.597314990504696
H 4.609139538629476 1.7080544704217837 2.076008679785561
C 7.181017269699161 0.35522269368009907 -2.6853576287244474
N 6.888675153633356 1.5852291605086766 -3.3347255896942256
N 5.8795974239559055 2.1206957113751845 -3.44412119459738
C 4.858097330978218 3.1891072253868895 -3.857386855853907
O 5.9987355539200315 3.620541746663645 -4.329541595547198
N 3.269183251015911 2.93046595570791 -3.3963868557276804
H 8.529319216358116 -0.3728703471736148 -2.531857190627141
C 4.452013234612753 1.7877255301866057 -2.972173908582614
C 3.442301082080591 0.780070453937165 -3.5524433383995264
H 2.5414024289117214 0.8055915027853722 -2.9757022302370126
H 3.223486178396919 1.0387091513227333 -4.567394603502108
H 3.8604613784182327 -0.20421327049139926 -3.5174074059696343
H 4.033852929939163 2.772009250927237 -3.0072098451248177
H 4.670828138296425 1.5290868328010356 -1.9572226434800326
C 1.842026888413439 3.5068739926283 -3.447165706215479
H 1.8885232133304908 4.575810805135366 -3.4365742437727187
H 1.3569597570117844 3.179828922363292 -4.3430738468690615
H 1.2890075912330996 3.1654853734419177 -2.5971519017339846
C 2.9971933599222256 1.6399214798208046 -2.6013293390031857
H 2.9548769400455877 0.8088576269469545 -3.273967569774773
H 3.783606523942748 1.4853191763101572 -1.8924199938506001
H 2.0641382996363675 1.7289009774818105 -2.085198634971859