36
[]
O 2.94073 -0.04252 0.1053
C 3.521 0.65232 1.13871
N 2.65881 1.24938 2.02667
O 4.74414 0.71175 1.2271
H 1.6651 1.15138 1.88092
C 1.4069895049789465 -0.1199239652161709 -0.0098030846736445
C 2.245689119489864 -0.0106846826187059 1.1800262080220891
O 2.621464993397843 -1.2689990401759896 1.545630803389673
C 1.2723742811530476 -1.4263962477503065 -0.3121102736128891
C 2.017364704991429 -2.199202052972101 0.7196536508410544
O 2.7917811298034594 0.9719772436375164 1.6471680333364864
H 1.0758014131640807 -3.101501326843493 1.5387474109530492
H 3.103029749649337 -3.089190695243582 0.0865252061825414
C 0.8508305434515888 1.119800281906114 -0.7346278915131281
C 0.7729346526048566 1.4147705502732233 -2.2441062006686696
H 0.3257257342004007 2.374680473578768 -2.39732870390948
H 1.758892157596449 1.410195497474839 -2.6597585501572496
H 0.1800636069534062 0.6643825629798465 -2.7240247270076043
H 1.4437015905254569 1.870188273710446 -0.2547093739848711
H -0.1351269615400023 1.1243753347045002 -0.3189755420245492
C -0.087245285447818 -2.03013220248987 0.0860574436505536
H 0.020937289025515 -2.583942506908334 0.9951727684254056
H -0.798305003277624 -1.2436369971186898 0.2299996752859499
H -0.4290382010855071 -2.6822832162891697 -0.6903294819177199
C 0.877380941564526 -1.4441050260982484 -1.8004874639951296
H 0.9968909279544004 -0.4640326686868201 -2.2128896146094696
H 1.5048409817458877 -2.131916982113319 -2.3278475000033234
H -0.1440093446792647 -1.748662094862978 -1.8948637067958636
O 3.146472083055862 2.0644478089493394 3.238878793716718
O 4.48504950083232 3.8509771559018637 3.3863319357527444
O 3.6819301716124366 3.0571233629937486 5.210919546288014
C 3.7792447211629216 2.9798604452820174 3.797525259476136
C 2.8380226619882123 2.0609833481907907 6.027696863620101
H 3.469520346408996 1.538775039358969 6.715744211699024
H 2.0835439709070864 2.59262718767053 6.569007060353906
H 2.3746590256020053 1.3594362945143175 5.3658616332751565