26
[]
O 2.94073 -0.04252 0.1053
C 3.521 0.65232 1.13871
N 2.65881 1.24938 2.02667
O 4.74414 0.71175 1.2271
H 1.6651 1.15138 1.88092
N 1.406989504978946 -0.1199239652161709 -0.0098030846736445
C 0.9066052496214576 -1.1051508738312394 -0.6894078635938101
N -0.4312465410393242 -1.3175396808879698 -0.8980549840214838
S 2.008161356639647 -2.2662072135083107 -1.2547547475390683
C 0.5174000582876683 0.8762119539442441 0.756971880289312
H 0.4186702920576453 0.5569816271034838 1.7734581950646466
H 0.9648050568165756 1.847812501197068 0.730117824550937
H -0.4493475892548879 0.9159668946872036 0.300114647851889
C -0.8413146449322193 -2.6497196945839425 -1.5528378192261671
C -0.1397489396046882 -3.445200367463673 -2.669357436172299
H -0.7011314759922636 -4.330651043940742 -2.8831956002723373
H -0.0756294478883088 -2.841981297912308 -3.5507855122535785
H 0.8449655981665556 -3.715672863757456 -2.3498548414724154
H -1.8260291811251168 -2.379247202875285 -1.872340422671648
H -0.9054341366485978 -3.2529387641353087 -0.6714097431448879
H -1.2923089230224862 -0.1540960330257417 -1.4239546442063102
C 3.146472083055862 2.0644478089493394 3.238878793716718
O 2.3019044874906065 2.597081180857901 4.3634436462932324
H 3.93040777037635 1.449621497310965 3.7058026254735763
H 3.6761284361617825 2.930558014137063 2.813270288063676
H 2.878080122699864 3.070645462088489 4.974806974383629