[]
 OpenBabel04292410473D

 64 65  0  0  1  0  0  0  0  0999 V2000
    3.0825   -0.2686   -0.0191 C   0  0  1  0  0  0  0  0  0  0  0  0
    3.6128    0.5677   -1.1705 C   0  0  0  0  0  0  0  0  0  0  0  0
    5.1158    0.6206   -1.1942 C   0  0  0  0  0  0  0  0  0  0  0  0
    5.7835   -0.5278   -1.2504 N   0  0  0  0  0  0  0  0  0  0  0  0
    7.1123   -0.4087   -1.2501 C   0  0  0  0  0  0  0  0  0  0  0  0
    7.7885    0.7328   -1.2105 N   0  0  0  0  0  0  0  0  0  0  0  0
    7.0220    1.8141   -1.1715 C   0  0  0  0  0  0  0  0  0  0  0  0
    5.6904    1.8207   -1.1643 N   0  0  0  0  0  0  0  0  0  0  0  0
    3.4699   -1.2914   -0.0167 H   0  0  0  0  0  0  0  0  0  0  0  0
    3.2123    1.5893   -1.1281 H   0  0  0  0  0  0  0  0  0  0  0  0
    3.2857    0.1471   -2.1300 H   0  0  0  0  0  0  0  0  0  0  0  0
    3.6558    0.1853    1.3408 C   0  0  0  0  0  0  0  0  0  0  0  0
    4.4076    1.2436    1.3467 N   0  0  0  0  0  4  0  0  0  0  0  0
    3.6284   -0.9828    2.7422 S   0  0  0  0  0  0  0  0  0  0  0  0
    5.4352    1.6721    2.2372 C   0  0  0  0  0  0  0  0  0  0  0  0
    7.6383    2.6074    3.7184 C   0  0  0  0  0  0  0  0  0  0  0  0
    7.3491    1.2428    3.6858 C   0  0  0  0  0  0  0  0  0  0  0  0
    6.2607    0.7723    2.9453 C   0  0  0  0  0  0  0  0  0  0  0  0
    5.7482    3.0389    2.2689 C   0  0  0  0  0  0  0  0  0  0  0  0
    6.8390    3.5053    3.0088 C   0  0  0  0  0  0  0  0  0  0  0  0
    8.4927    2.9660    4.2777 H   0  0  0  0  0  0  0  0  0  0  0  0
    7.9847    0.5439    4.2147 H   0  0  0  0  0  0  0  0  0  0  0  0
    6.1162   -0.2936    2.9029 H   0  0  0  0  0  0  0  0  0  0  0  0
    5.1572    3.7429    1.6982 H   0  0  0  0  0  0  0  0  0  0  0  0
    7.0763    4.5611    3.0160 H   0  0  0  0  0  0  0  0  0  0  0  0
    1.8593   -1.4053    2.7406 C   0  0  0  0  0  0  0  0  0  0  0  0
    1.6064   -2.0158    1.8491 H   0  0  0  0  0  0  0  0  0  0  0  0
    1.6554   -2.0310    3.6331 H   0  0  0  0  0  0  0  0  0  0  0  0
    1.2345   -0.4949    2.8346 H   0  0  0  0  0  0  0  0  0  0  0  0
    1.6278   -0.2221   -0.0400 N   0  0  0  0  0  0  0  0  0  0  0  0
    0.8487   -0.7883   -1.0945 C   0  0  0  0  0  0  0  0  0  0  0  0
   -0.5550   -0.5103   -1.1437 N   0  0  0  0  0  0  0  0  0  0  0  0
    1.4160   -1.5531   -1.9658 N   0  0  0  0  0  0  0  0  0  0  0  0
    1.1362    0.3076    0.6947 H   0  0  0  0  0  0  0  0  0  0  0  0
    0.9111   -2.0128   -2.7337 H   0  0  0  0  0  0  0  0  0  0  0  0
   -0.9696    0.0173   -0.3602 H   0  0  0  0  0  0  0  0  0  0  0  0
   -1.4422   -0.9076   -2.2224 C   0  0  0  0  0  0  0  0  0  0  0  0
   -1.1130   -0.1684   -3.5227 C   0  0  0  0  0  0  0  0  0  0  0  0
   -1.8327   -0.4723   -4.3120 H   0  0  0  0  0  0  0  0  0  0  0  0
   -1.2001    0.9280   -3.3678 H   0  0  0  0  0  0  0  0  0  0  0  0
   -0.0907   -0.3902   -3.8857 H   0  0  0  0  0  0  0  0  0  0  0  0
   -2.4850   -0.6355   -1.9486 H   0  0  0  0  0  0  0  0  0  0  0  0
   -1.4038   -2.0082   -2.3648 H   0  0  0  0  0  0  0  0  0  0  0  0
    7.8615   -1.6957   -1.2311 C   0  0  0  0  0  0  0  0  0  0  0  0
    9.3084   -1.7192   -1.2657 S   0  0  0  0  0  0  0  0  0  0  0  0
    7.1344   -2.8499   -1.1407 O   0  0  0  0  0  0  0  0  0  0  0  0
    7.6243   -4.1286   -0.9491 C   0  0  0  0  0  0  0  0  0  0  0  0
    6.7746   -4.8412   -0.9198 H   0  0  0  0  0  0  0  0  0  0  0  0
    8.3034   -4.4134   -1.7797 H   0  0  0  0  0  0  0  0  0  0  0  0
    8.1649   -4.1851    0.0204 H   0  0  0  0  0  0  0  0  0  0  0  0
    7.7195    3.1635   -1.1282 C   0  0  0  0  0  0  0  0  0  0  0  0
    7.0911    4.2901   -1.2814 N   0  0  0  0  0  0  0  0  0  0  0  0
    9.4927    3.4359   -0.7656 S   0  0  0  0  0  3  0  0  0  0  0  0
    5.6889    4.5240   -1.5445 C   0  0  0  0  0  0  0  0  0  0  0  0
    5.3844    4.0332   -2.4927 H   0  0  0  0  0  0  0  0  0  0  0  0
    5.0683    4.1761   -0.6936 H   0  0  0  0  0  0  0  0  0  0  0  0
    5.5250    5.6160   -1.6501 H   0  0  0  0  0  0  0  0  0  0  0  0
   10.3990    1.8942   -1.1292 C   0  0  0  0  0  0  0  0  0  0  0  0
   10.6018    1.1102    0.1643 C   0  0  0  0  0  0  0  0  0  0  0  0
   11.2066    0.2012   -0.0311 H   0  0  0  0  0  0  0  0  0  0  0  0
   11.1429    1.7385    0.9037 H   0  0  0  0  0  0  0  0  0  0  0  0
    9.6283    0.8132    0.6062 H   0  0  0  0  0  0  0  0  0  0  0  0
   11.3938    2.1804   -1.5301 H   0  0  0  0  0  0  0  0  0  0  0  0
    9.9408    1.3062   -1.9452 H   0  0  0  0  0  0  0  0  0  0  0  0
  1  2  1  0  0  0  0
  1  9  1  6  0  0  0
  2  3  1  0  0  0  0
  2 10  1  0  0  0  0
  2 11  1  0  0  0  0
  3  4  2  0  0  0  0
  3  8  1  0  0  0  0
  4  5  1  0  0  0  0
  5  6  2  0  0  0  0
  6  7  1  0  0  0  0
  7  8  2  0  0  0  0
 12  1  1  0  0  0  0
 12 13  2  0  0  0  0
 12 14  1  0  0  0  0
 15 13  1  0  0  0  0
 15 18  2  0  0  0  0
 16 21  1  0  0  0  0
 17 16  2  0  0  0  0
 17 22  1  0  0  0  0
 18 17  1  0  0  0  0
 18 23  1  0  0  0  0
 19 15  1  0  0  0  0
 19 20  2  0  0  0  0
 20 16  1  0  0  0  0
 24 19  1  0  0  0  0
 25 20  1  0  0  0  0
 26 14  1  0  0  0  0
 26 29  1  0  0  0  0
 26 27  1  0  0  0  0
 28 26  1  0  0  0  0
 30  1  1  0  0  0  0
 30 31  1  0  0  0  0
 31 32  1  0  0  0  0
 31 33  2  0  0  0  0
 34 30  1  0  0  0  0
 35 33  1  0  0  0  0
 36 32  1  0  0  0  0
 37 32  1  0  0  0  0
 37 43  1  0  0  0  0
 38 37  1  0  0  0  0
 38 41  1  0  0  0  0
 38 39  1  0  0  0  0
 40 38  1  0  0  0  0
 42 37  1  0  0  0  0
 44  5  1  0  0  0  0
 44 45  2  0  0  0  0
 46 44  1  0  0  0  0
 46 47  1  0  0  0  0
 47 48  1  0  0  0  0
 47 49  1  0  0  0  0
 47 50  1  0  0  0  0
 51  7  1  0  0  0  0
 51 52  2  3  0  0  0
 51 53  1  0  0  0  0
 54 52  1  0  0  0  0
 54 57  1  0  0  0  0
 54 55  1  0  0  0  0
 56 54  1  0  0  0  0
 58 53  1  0  0  0  0
 58 64  1  0  0  0  0
 59 58  1  0  0  0  0
 59 62  1  0  0  0  0
 59 60  1  0  0  0  0
 61 59  1  0  0  0  0
 63 58  1  0  0  0  0
M  END
