[]
 OpenBabel04292410463D

 35 37  0  0  0  0  0  0  0  0999 V2000
    2.8836    0.0330    0.0927 C   0  0  0  0  0  0  0  0  0  0  0  0
    3.6277    1.1208    0.0937 N   0  0  0  0  0  0  0  0  0  0  0  0
    4.9273    0.6688    0.0938 C   0  0  0  0  0  0  0  0  0  0  0  0
    6.1223    1.4043    0.0942 C   0  0  0  0  0  0  0  0  0  0  0  0
    7.3404    0.7135    0.0940 C   0  0  0  0  0  0  0  0  0  0  0  0
    7.3714   -0.6821    0.0933 C   0  0  0  0  0  0  0  0  0  0  0  0
    6.1921   -1.4352    0.0930 C   0  0  0  0  0  0  0  0  0  0  0  0
    4.9840   -0.7248    0.0931 C   0  0  0  0  0  0  0  0  0  0  0  0
    3.6648   -1.0883    0.0926 N   0  0  0  0  0  0  0  0  0  0  0  0
    6.0947    2.4888    0.0946 H   0  0  0  0  0  0  0  0  0  0  0  0
    8.2729    1.2737    0.0943 H   0  0  0  0  0  0  0  0  0  0  0  0
    8.3315   -1.1955    0.0928 H   0  0  0  0  0  0  0  0  0  0  0  0
    6.2233   -2.5203    0.0927 H   0  0  0  0  0  0  0  0  0  0  0  0
    1.4166    0.1253    0.1619 N   0  0  0  0  0  0  0  0  0  0  0  0
    0.9280    1.3180    0.6518 C   0  0  0  0  0  0  0  0  0  0  0  0
   -2.4027    0.7498    0.5583 H   0  0  0  0  0  0  0  0  0  0  0  0
   -0.4348    1.5560    0.7999 C   0  0  0  0  0  0  0  0  0  0  0  0
   -1.3403    0.5754    0.4447 C   0  0  0  0  0  0  0  0  0  0  0  0
   -1.6201   -1.3607   -0.3538 H   0  0  0  0  0  0  0  0  0  0  0  0
    0.5115   -0.8554   -0.2279 C   0  0  0  0  0  0  0  0  0  0  0  0
   -0.7838    2.5015    1.1953 H   0  0  0  0  0  0  0  0  0  0  0  0
    1.5917    2.1175    0.9589 H   0  0  0  0  0  0  0  0  0  0  0  0
   -0.8788   -0.6259   -0.0701 C   0  0  0  0  0  0  0  0  0  0  0  0
    0.9262   -1.9551   -0.7605 N   0  0  0  0  0  0  0  0  0  0  0  0
    0.1046   -3.0670   -1.1929 C   0  0  0  0  0  0  0  0  0  0  0  0
   -0.4602   -3.4807   -0.3291 H   0  0  0  0  0  0  0  0  0  0  0  0
   -0.5950   -2.7459   -1.9927 H   0  0  0  0  0  0  0  0  0  0  0  0
    0.7600   -3.8673   -1.5925 H   0  0  0  0  0  0  0  0  0  0  0  0
    3.2292   -2.4065    0.2629 N   0  0  0  0  0  0  0  0  0  0  0  0
    3.7231   -3.5341   -0.4697 C   0  0  0  0  0  0  0  0  0  0  0  0
    3.3403   -4.8394   -0.0612 N   0  0  0  0  0  0  0  0  0  0  0  0
    4.4333   -3.3686   -1.7148 S   0  0  0  0  0  0  0  0  0  0  0  0
    2.4794   -2.5825    0.9487 H   0  0  0  0  0  0  0  0  0  0  0  0
    3.6237   -5.6757   -0.5945 H   0  0  0  0  0  0  0  0  0  0  0  0
    2.7801   -4.9703    0.7934 H   0  0  0  0  0  0  0  0  0  0  0  0
  1  2  2  0  0  0  0
  1  9  1  0  0  0  0
  2  3  1  0  0  0  0
  3  4  2  0  0  0  0
  3  8  1  0  0  0  0
  4  5  1  0  0  0  0
  4 10  1  0  0  0  0
  5  6  2  0  0  0  0
  5 11  1  0  0  0  0
  6  7  1  0  0  0  0
  6 12  1  0  0  0  0
  7  8  2  0  0  0  0
  7 13  1  0  0  0  0
  8  9  1  0  0  0  0
 14  1  1  0  0  0  0
 14 15  1  0  0  0  0
 14 20  1  0  0  0  0
 15 17  2  0  0  0  0
 15 22  1  0  0  0  0
 16 18  1  0  0  0  0
 17 18  1  0  0  0  0
 17 21  1  0  0  0  0
 18 23  2  0  0  0  0
 19 23  1  0  0  0  0
 20 23  1  0  0  0  0
 20 24  2  0  0  0  0
 25 24  1  0  0  0  0
 25 28  1  0  0  0  0
 25 26  1  0  0  0  0
 27 25  1  0  0  0  0
 29  9  1  0  0  0  0
 29 30  1  0  0  0  0
 30 31  1  0  0  0  0
 30 32  2  0  0  0  0
 33 29  1  0  0  0  0
 34 31  1  0  0  0  0
 35 31  1  0  0  0  0
M  END
