[]
 OpenBabel04292410473D

 78 80  0  0  1  0  0  0  0  0999 V2000
   -0.3206    1.2862    0.9649 C   0  0  0  0  0  0  0  0  0  0  0  0
   -1.2174    1.6315   -0.0620 C   0  0  0  0  0  0  0  0  0  0  0  0
   -2.4974    2.4239    0.1516 C   0  0  0  0  0  0  0  0  0  0  0  0
   -3.7361    1.5834    0.3513 C   0  0  0  0  0  0  0  0  0  0  0  0
   -4.1932    1.2910    1.6431 C   0  0  0  0  0  0  0  0  0  0  0  0
   -5.2702    0.4288    1.8371 C   0  0  0  0  0  0  0  0  0  0  0  0
   -5.9286   -0.1426    0.7431 C   0  0  0  0  0  0  0  0  0  0  0  0
   -5.5265    0.1969   -0.5540 C   0  0  0  0  0  0  0  0  0  0  0  0
   -4.4390    1.0581   -0.7431 C   0  0  0  0  0  0  0  0  0  0  0  0
   -0.8892    1.2531   -1.3789 C   0  0  0  0  0  0  0  0  0  0  0  0
    0.3203    0.6165   -1.6702 C   0  0  0  0  0  0  0  0  0  0  0  0
    1.2253    0.3538   -0.6496 C   0  0  0  0  0  0  0  0  0  0  0  0
    0.9082    0.6740    0.6692 C   0  0  0  0  0  0  0  0  0  0  0  0
   -2.6529    3.0768   -0.7178 H   0  0  0  0  0  0  0  0  0  0  0  0
   -2.3758    3.1303    0.9826 H   0  0  0  0  0  0  0  0  0  0  0  0
   -3.7034    1.7203    2.5125 H   0  0  0  0  0  0  0  0  0  0  0  0
   -5.5813    0.1930    2.8524 H   0  0  0  0  0  0  0  0  0  0  0  0
   -4.1292    1.3164   -1.7559 H   0  0  0  0  0  0  0  0  0  0  0  0
   -1.5715    1.4694   -2.1980 H   0  0  0  0  0  0  0  0  0  0  0  0
    0.5484    0.3445   -2.6968 H   0  0  0  0  0  0  0  0  0  0  0  0
    1.6168    0.4518    1.4605 H   0  0  0  0  0  0  0  0  0  0  0  0
   -0.6325    1.5510    2.7693 P   0  0  2  0  0  0  0  0  0  0  0  0
   -1.1378    2.9817    3.1029 O   0  0  0  0  0  0  0  0  0  0  0  0
    0.7513    1.2912    3.8164 O   0  0  0  0  0  0  0  0  0  0  0  0
    1.5924    2.4125    3.7420 C   0  0  0  0  0  0  0  0  0  0  0  0
    2.5379    2.1706    4.2692 H   0  0  0  0  0  0  0  0  0  0  0  0
    1.8640    2.6575    2.6921 H   0  0  0  0  0  0  0  0  0  0  0  0
    1.1364    3.2812    4.2630 H   0  0  0  0  0  0  0  0  0  0  0  0
   -1.8736    0.4881    3.3992 O   0  0  0  0  0  0  0  0  0  0  0  0
   -1.4125   -0.8491    3.3760 C   0  0  0  0  0  0  0  0  0  0  0  0
   -1.8197   -1.5548    2.0869 C   0  0  0  0  0  0  0  0  0  0  0  0
   -1.5163   -2.6222    2.1293 H   0  0  0  0  0  0  0  0  0  0  0  0
   -2.9170   -1.4931    1.9711 H   0  0  0  0  0  0  0  0  0  0  0  0
   -1.3376   -1.1006    1.2014 H   0  0  0  0  0  0  0  0  0  0  0  0
   -0.3167   -0.9476    3.5405 H   0  0  0  0  0  0  0  0  0  0  0  0
   -1.8916   -1.3828    4.2232 H   0  0  0  0  0  0  0  0  0  0  0  0
   -7.0768   -0.9712    1.0140 N   0  0  0  0  0  0  0  0  0  0  0  0
   -8.1895   -0.2630    1.4002 C   0  0  0  0  0  0  0  0  0  0  0  0
  -10.3954   -2.7821    1.8682 H   0  0  0  0  0  0  0  0  0  0  0  0
   -9.3904   -0.8963    1.7053 C   0  0  0  0  0  0  0  0  0  0  0  0
   -9.4685   -2.2761    1.6306 C   0  0  0  0  0  0  0  0  0  0  0  0
   -8.4193   -4.0879    1.2235 H   0  0  0  0  0  0  0  0  0  0  0  0
   -7.1355   -2.3627    0.9528 C   0  0  0  0  0  0  0  0  0  0  0  0
  -10.2555   -0.3154    1.9980 H   0  0  0  0  0  0  0  0  0  0  0  0
   -8.1605    0.8202    1.4660 H   0  0  0  0  0  0  0  0  0  0  0  0
   -8.3471   -3.0065    1.2601 C   0  0  0  0  0  0  0  0  0  0  0  0
   -6.1525   -3.1605    0.6665 N   0  0  0  0  0  0  0  0  0  0  0  0
   -4.7573   -2.9645    0.3426 C   0  0  0  0  0  0  0  0  0  0  0  0
   -4.1437   -3.4838    1.1070 H   0  0  0  0  0  0  0  0  0  0  0  0
   -4.5522   -3.4445   -0.6340 H   0  0  0  0  0  0  0  0  0  0  0  0
   -4.4188   -1.9310    0.2981 H   0  0  0  0  0  0  0  0  0  0  0  0
   -6.2410   -0.2955   -1.7011 N   0  0  0  0  0  0  0  0  0  0  0  0
   -5.3434   -0.7625   -3.2007 P   0  0  0  0  0  0  0  0  0  0  0  0
   -3.8428   -1.5725   -2.6917 S   0  0  0  0  0  0  0  0  0  0  0  0
   -7.5842    0.2389   -1.9086 C   0  0  0  0  0  0  0  0  0  0  0  0
   -8.6396   -0.8549   -2.0341 C   0  0  0  0  0  0  0  0  0  0  0  0
   -9.6320   -0.3821   -2.1937 H   0  0  0  0  0  0  0  0  0  0  0  0
   -8.4344   -1.5194   -2.8928 H   0  0  0  0  0  0  0  0  0  0  0  0
   -8.6896   -1.4661   -1.1180 H   0  0  0  0  0  0  0  0  0  0  0  0
   -7.5973    0.8500   -2.8379 H   0  0  0  0  0  0  0  0  0  0  0  0
   -7.8735    0.9264   -1.0843 H   0  0  0  0  0  0  0  0  0  0  0  0
   -4.8891    0.6967   -4.0546 O   0  0  0  0  0  0  0  0  0  0  0  0
   -5.3267    0.5868   -5.3816 C   0  0  0  0  0  0  0  0  0  0  0  0
   -5.0051    1.4955   -5.9295 H   0  0  0  0  0  0  0  0  0  0  0  0
   -4.8542   -0.2804   -5.8921 H   0  0  0  0  0  0  0  0  0  0  0  0
   -6.4366    0.5472   -5.4307 H   0  0  0  0  0  0  0  0  0  0  0  0
   -6.3812   -1.8120   -4.1710 O   0  0  0  0  0  0  0  0  0  0  0  0
   -5.6841   -2.9415   -4.6299 C   0  0  0  0  0  0  0  0  0  0  0  0
   -4.7691   -2.6572   -5.1924 H   0  0  0  0  0  0  0  0  0  0  0  0
   -5.4643   -3.6348   -3.7898 H   0  0  0  0  0  0  0  0  0  0  0  0
   -6.3382   -3.4867   -5.3408 H   0  0  0  0  0  0  0  0  0  0  0  0
    2.4406   -0.3361   -0.9220 N   0  0  0  0  0  0  0  0  0  0  0  0
    2.6165   -0.9679   -2.1003 O   0  0  0  0  0  0  0  0  0  0  0  0
    3.0689   -0.5618   -0.1331 H   0  0  0  0  0  0  0  0  0  0  0  0
    3.8831   -0.6069   -2.5858 C   0  0  0  0  0  0  0  0  0  0  0  0
    4.6833   -0.8347   -1.8461 H   0  0  0  0  0  0  0  0  0  0  0  0
    4.0976   -1.2259   -3.4820 H   0  0  0  0  0  0  0  0  0  0  0  0
    3.8963    0.4602   -2.8923 H   0  0  0  0  0  0  0  0  0  0  0  0
  1  2  2  0  0  0  0
  1 13  1  0  0  0  0
  2  3  1  0  0  0  0
  2 10  1  0  0  0  0
  3  4  1  0  0  0  0
  3 14  1  0  0  0  0
  3 15  1  0  0  0  0
  4  5  2  0  0  0  0
  4  9  1  0  0  0  0
  5  6  1  0  0  0  0
  5 16  1  0  0  0  0
  6  7  2  0  0  0  0
  6 17  1  0  0  0  0
  7  8  1  0  0  0  0
  8  9  2  0  0  0  0
  9 18  1  0  0  0  0
 10 11  2  0  0  0  0
 10 19  1  0  0  0  0
 11 12  1  0  0  0  0
 11 20  1  0  0  0  0
 12 13  2  0  0  0  0
 13 21  1  0  0  0  0
 22  1  1  0  0  0  0
 22 23  2  1  0  0  0
 22 24  1  0  0  0  0
 24 25  1  0  0  0  0
 25 26  1  0  0  0  0
 25 27  1  0  0  0  0
 25 28  1  0  0  0  0
 29 22  1  0  0  0  0
 30 29  1  0  0  0  0
 30 31  1  0  0  0  0
 30 35  1  0  0  0  0
 30 36  1  0  0  0  0
 31 34  1  0  0  0  0
 31 32  1  0  0  0  0
 31 33  1  0  0  0  0
 37  7  1  0  0  0  0
 37 38  1  0  0  0  0
 37 43  1  0  0  0  0
 38 40  2  0  0  0  0
 38 45  1  0  0  0  0
 39 41  1  0  0  0  0
 40 41  1  0  0  0  0
 40 44  1  0  0  0  0
 41 46  2  0  0  0  0
 42 46  1  0  0  0  0
 43 46  1  0  0  0  0
 43 47  2  0  0  0  0
 48 47  1  0  0  0  0
 48 51  1  0  0  0  0
 48 49  1  0  0  0  0
 50 48  1  0  0  0  0
 52  8  1  0  0  0  0
 52 53  1  0  0  0  0
 53 54  2  0  0  0  0
 55 52  1  0  0  0  0
 55 61  1  0  0  0  0
 56 55  1  0  0  0  0
 56 59  1  0  0  0  0
 56 57  1  0  0  0  0
 58 56  1  0  0  0  0
 60 55  1  0  0  0  0
 62 53  1  0  0  0  0
 62 63  1  0  0  0  0
 63 64  1  0  0  0  0
 63 65  1  0  0  0  0
 63 66  1  0  0  0  0
 67 53  1  0  0  0  0
 67 68  1  0  0  0  0
 68 69  1  0  0  0  0
 68 70  1  0  0  0  0
 68 71  1  0  0  0  0
 72 12  1  0  0  0  0
 72 73  1  0  0  0  0
 74 72  1  0  0  0  0
 75 73  1  0  0  0  0
 75 78  1  0  0  0  0
 75 76  1  0  0  0  0
 77 75  1  0  0  0  0
M  END
