60
[]
C 2.5928 -1.73121 1.60194
C 2.97303 -2.78463 0.53459
C 3.08969 -2.31963 -0.92919
C 3.49638 -3.38338 -1.94308
C 4.14222 -3.05164 -3.15076
C 4.45882 -4.0336 -4.10066
C 4.11384 -5.35883 -3.86663
Cl 4.48152 -6.56278 -5.03881
C 3.45697 -5.71358 -2.69601
C 3.1459 -4.73289 -1.74801
H 2.24152 -3.59856 0.5664
H 3.9241 -3.26747 0.79954
H 3.82446 -1.50943 -0.94753
H 2.1236 -1.92802 -1.26961
H 4.96085 -3.76267 -5.02483
H 3.17108 -6.74701 -2.51613
H 2.60661 -5.06291 -0.86287
N 2.167786156549194 -0.3621269237237188 1.0392902304905394
C 1.5673421414493938 0.3918630469768906 1.9075558746419847
N 1.1060771650264938 1.65918169631607 1.6633672128194037
S 1.4602504370342837 -0.2177905341647408 3.488045880256272
C 2.5426942685580176 0.1498821991394177 -0.3638813789909605
H 3.550652490258437 0.5088275843174017 -0.3550252959858953
H 2.4547550718826647 -0.6489529250922921 -1.070301323798607
H 1.8831819346911511 0.9455016697025956 -0.6412496174595563
C 0.606999349357312 2.474167236465901 2.870976381074416
H 1.2698343154620175 3.295873484160582 3.045185010736485
H -0.3759699633608058 2.8454718614217587 2.6689758806267774
H 0.5803696245017228 1.847432857577268 3.737806742936595
H 0.217265023856887 1.8983712828545969 0.4287007317804843
N 1.4182717320330995 -2.2938297068827778 2.4238538721142326
C 2.002405948241737 -3.2945348910547576 3.007202371577155
N 1.4064065617785446 -4.135724510323165 3.910349533323552
S 3.6604426180622376 -3.4837419539196164 2.697025214306353
C -0.0144184319044218 -1.861569298206352 2.787378057344827
H 0.0230560329141446 -1.0846847560606383 3.5221882839352334
H -0.5110524469204828 -1.5001525108191434 1.911231632730784
H -0.5506943482154677 -2.699510488162632 3.181285031048421
H 2.3142705583528107 -5.136068232188483 4.649738065726401
C 0.0567156435152738 -4.779946880536938 3.5430458947984267
H 0.1892926346672588 -5.432947623035044 2.705840204329085
H -0.310013032410515 -5.340082503322968 4.377706399902185
H -0.6468951849421194 -4.014442343946167 3.290390780642052
P 4.528292230466377 -1.6058447520652497 -3.5143866408172144
O 3.3831695091289635 -0.7192646059420129 -3.401663406402577
O 5.58113687591235 -1.467038154205796 -2.3991060120307064
C 6.544134398540479 -1.340076963453411 -1.379000636368554
H 7.524164878518057 -1.4031390462441726 -1.803820845667744
H 6.426272395177929 -0.3941476463602174 -0.8929779424262128
H 6.413492047541374 -2.126503755320963 -0.6653028982060056
O 5.358938030022578 -1.44278546738124 -4.800869919122058
C 6.118698599270903 -1.293641253302341 -5.977567939355902
H 6.598421346560886 -2.2208281429854044 -6.212300415874168
H 5.475104223556834 -1.01081436035648 -6.784219668403703
H 6.85971124201249 -0.5359908650443235 -5.830037817788799
C 3.7881064372424125 -1.5328608821633942 2.5524662482121636
S 3.7472127264086006 -0.045452128028165006 3.4347321488544393
N 4.883515611442625 -2.586908316055367 2.798764336275706
H 5.205887164055778 -2.9044887804346704 3.724004608156698
H 5.40709374307615 -3.08333517869427 2.0637322484552882