[]
 OpenBabel06192410393D

 66 66  0  0  1  0  0  0  0  0999 V2000
    0.4766   -0.4659    0.1611 C   0  0  0  0  0  0  0  0  0  0  0  0
   -0.8720   -0.6686   -0.1352 C   0  0  0  0  0  0  0  0  0  0  0  0
   -1.3895   -1.9695   -0.1968 C   0  0  0  0  0  0  0  0  0  0  0  0
   -0.5718   -3.0791    0.0357 C   0  0  0  0  0  0  0  0  0  0  0  0
   -1.0083   -4.4196   -0.0707 N   0  0  0  0  0  4  0  0  0  0  0  0
   -2.2288   -4.8770   -0.5675 C   0  0  0  0  0  0  0  0  0  0  0  0
   -2.4394   -6.4095   -0.5764 C   0  0  1  0  0  0  0  0  0  0  0  0
   -3.1183   -4.1179   -0.9616 O   0  0  0  0  0  0  0  0  0  0  0  0
    0.7662   -2.8657    0.3835 C   0  0  0  0  0  0  0  0  0  0  0  0
    1.2907   -1.5684    0.4363 C   0  0  0  0  0  0  0  0  0  0  0  0
   -2.4430   -2.0877   -0.4268 H   0  0  0  0  0  0  0  0  0  0  0  0
   -0.3196   -5.1292    0.1588 H   0  0  0  0  0  0  0  0  0  0  0  0
    1.4323   -3.6974    0.5978 H   0  0  0  0  0  0  0  0  0  0  0  0
    2.3418   -1.4286    0.6830 H   0  0  0  0  0  0  0  0  0  0  0  0
    1.1795    0.8546   -0.0022 C   0  0  0  0  0  0  0  0  0  0  0  0
    0.7070    1.6943   -0.8633 N   0  0  0  0  0  0  0  0  0  0  0  0
    1.2021    2.9460   -1.1762 N   0  0  0  0  0  0  0  0  0  0  0  0
    2.1420    1.0366    0.4675 H   0  0  0  0  0  0  0  0  0  0  0  0
    2.0849    3.7391   -0.3414 C   0  0  0  0  0  0  0  0  0  0  0  0
    1.4699    4.0085    1.0293 C   0  0  0  0  0  0  0  0  0  0  0  0
    2.0921    4.7489    1.5755 H   0  0  0  0  0  0  0  0  0  0  0  0
    0.4441    4.4230    0.9198 H   0  0  0  0  0  0  0  0  0  0  0  0
    1.4296    3.0775    1.6286 H   0  0  0  0  0  0  0  0  0  0  0  0
    2.2252    4.7263   -0.8400 H   0  0  0  0  0  0  0  0  0  0  0  0
    3.0797    3.2599   -0.2414 H   0  0  0  0  0  0  0  0  0  0  0  0
    0.8226    3.4007   -2.0201 H   0  0  0  0  0  0  0  0  0  0  0  0
   -1.8244    0.3918   -0.4101 N   0  0  0  0  0  0  0  0  0  0  0  0
   -1.7975    1.7423    0.0881 C   0  0  0  0  0  0  0  0  0  0  0  0
   -2.5248    2.7621   -0.5710 N   0  0  0  0  0  0  0  0  0  0  0  0
   -1.1534    2.0587    1.1539 N   0  0  0  0  0  0  0  0  0  0  0  0
   -2.6188    0.1578   -1.0269 H   0  0  0  0  0  0  0  0  0  0  0  0
   -0.6571    1.3677    1.7282 H   0  0  0  0  0  0  0  0  0  0  0  0
   -3.5158    2.5948   -0.7980 H   0  0  0  0  0  0  0  0  0  0  0  0
   -2.1808    3.7355   -0.5310 H   0  0  0  0  0  0  0  0  0  0  0  0
   -1.4224   -7.0476   -1.2996 O   0  0  0  0  0  0  0  0  0  0  0  0
    0.5595   -7.4290    0.0425 O   0  0  0  0  0  0  0  0  0  0  0  0
    0.5897   -7.9032   -2.2808 S   0  0  0  0  0  0  0  0  0  0  0  0
    0.2217   -7.2137    0.9072 H   0  0  0  0  0  0  0  0  0  0  0  0
   -0.1120   -7.4193   -1.1311 C   0  0  0  0  0  0  0  0  0  0  0  0
   -2.7660   -7.1984    1.1387 P   0  0  0  0  0  0  0  0  0  0  0  0
   -3.0323   -7.8701    2.4690 O   0  0  0  0  0  0  0  0  0  0  0  0
   -1.5189   -6.3517    1.8872 O   0  0  0  0  0  1  0  0  0  0  0  0
   -2.5782   -8.7918    0.4114 N   0  0  0  0  0  0  0  0  0  0  0  0
   -3.3556   -9.4282    0.7045 H   0  0  0  0  0  0  0  0  0  0  0  0
   -1.6631   -9.1939    0.7156 H   0  0  0  0  0  0  0  0  0  0  0  0
   -4.3527   -6.4797    1.3316 N   0  0  0  0  0  0  0  0  0  0  0  0
   -5.1036   -6.9446    0.7774 H   0  0  0  0  0  0  0  0  0  0  0  0
   -4.3134   -5.4409    1.3461 H   0  0  0  0  0  0  0  0  0  0  0  0
   -4.0262   -6.6228   -1.6959 P   0  0  0  0  0  0  0  0  0  0  0  0
   -3.6881   -6.0064   -3.0816 O   0  0  0  0  0  0  0  0  0  0  0  0
   -4.2654   -8.3005   -2.1683 O   0  0  0  0  0  0  0  0  0  0  0  0
   -5.6455   -8.5740   -2.3322 C   0  0  0  0  0  0  0  0  0  0  0  0
   -6.2153   -7.9693   -3.6251 C   0  0  0  0  0  0  0  0  0  0  0  0
   -7.2868   -8.2429   -3.7255 H   0  0  0  0  0  0  0  0  0  0  0  0
   -6.1563   -6.8618   -3.6343 H   0  0  0  0  0  0  0  0  0  0  0  0
   -5.6582   -8.3552   -4.5028 H   0  0  0  0  0  0  0  0  0  0  0  0
   -5.7686   -9.6738   -2.3953 H   0  0  0  0  0  0  0  0  0  0  0  0
   -6.2365   -8.2778   -1.4376 H   0  0  0  0  0  0  0  0  0  0  0  0
   -5.6757   -6.0030   -1.3661 O   0  0  0  0  0  0  0  0  0  0  0  0
   -5.8291   -4.6385   -1.0215 C   0  0  0  0  0  0  0  0  0  0  0  0
   -5.7843   -3.6821   -2.2144 C   0  0  0  0  0  0  0  0  0  0  0  0
   -5.9646   -2.6456   -1.8493 H   0  0  0  0  0  0  0  0  0  0  0  0
   -4.8033   -3.6960   -2.7259 H   0  0  0  0  0  0  0  0  0  0  0  0
   -6.5790   -3.9390   -2.9438 H   0  0  0  0  0  0  0  0  0  0  0  0
   -6.8416   -4.5365   -0.5781 H   0  0  0  0  0  0  0  0  0  0  0  0
   -5.1880   -4.3219   -0.1951 H   0  0  0  0  0  0  0  0  0  0  0  0
  1  2  2  0  0  0  0
  1 10  1  0  0  0  0
  2  3  1  0  0  0  0
  3  4  2  0  0  0  0
  3 11  1  0  0  0  0
  4  5  1  0  0  0  0
  4  9  1  0  0  0  0
  5  6  1  0  0  0  0
  5 12  1  0  0  0  0
  6  8  2  0  0  0  0
  7  6  1  1  0  0  0
  9 10  2  0  0  0  0
  9 13  1  0  0  0  0
 10 14  1  0  0  0  0
 15  1  1  0  0  0  0
 15 16  2  0  0  0  0
 16 17  1  0  0  0  0
 18 15  1  0  0  0  0
 19 17  1  0  0  0  0
 19 25  1  0  0  0  0
 20 19  1  0  0  0  0
 20 23  1  0  0  0  0
 20 21  1  0  0  0  0
 22 20  1  0  0  0  0
 24 19  1  0  0  0  0
 26 17  1  0  0  0  0
 27  2  1  0  0  0  0
 27 28  1  0  0  0  0
 28 29  1  0  0  0  0
 28 30  2  0  0  0  0
 31 27  1  0  0  0  0
 32 30  1  0  0  0  0
 33 29  1  0  0  0  0
 34 29  1  0  0  0  0
 35  7  1  0  0  0  0
 35 39  1  0  0  0  0
 36 38  1  0  0  0  0
 39 36  1  0  0  0  0
 39 37  2  0  0  0  0
 40  7  1  0  0  0  0
 40 41  2  0  0  0  0
 40 42  1  0  0  0  0
 43 40  1  0  0  0  0
 43 44  1  0  0  0  0
 43 45  1  0  0  0  0
 46 40  1  0  0  0  0
 46 47  1  0  0  0  0
 46 48  1  0  0  0  0
 49  7  1  0  0  0  0
 49 50  2  0  0  0  0
 51 49  1  0  0  0  0
 52 51  1  0  0  0  0
 52 53  1  0  0  0  0
 52 57  1  0  0  0  0
 52 58  1  0  0  0  0
 53 56  1  0  0  0  0
 53 54  1  0  0  0  0
 53 55  1  0  0  0  0
 59 49  1  0  0  0  0
 60 59  1  0  0  0  0
 60 61  1  0  0  0  0
 60 65  1  0  0  0  0
 60 66  1  0  0  0  0
 61 64  1  0  0  0  0
 61 62  1  0  0  0  0
 61 63  1  0  0  0  0
M  END
