41
[]
C 2.90475 -0.98166 2.90618
S 3.56059 -1.2604 1.28381
P 5.68059 -1.2604 1.28381
O 5.59522 -2.80721 0.66494
C 6.10795 -3.84756 1.48427
C 5.90261 -5.17228 0.7755
S 5.63117 0.03841 -0.4684
C 7.13353 -0.40436 -1.34656
O 7.22894 -1.2604 1.28381
H 1.81155 -0.99074 2.85185
H 3.2288 -1.73748 3.62362
H 5.59185 -3.841 2.44886
H 7.17899 -3.6964 1.65424
H 4.8388 -5.35579 0.59913
H 6.31332 -5.99543 1.37004
H 6.39708 -5.16213 -0.20195
H 7.16692 -1.4698 -1.58406
H 8.03053 -0.10444 -0.7997
N 3.303477467433134 0.4086070651093578 3.4351165693413264
O 4.008944794590814 0.6414931765676686 4.355724102116735
H 1.8871054912784413 -0.0036415427429625 3.877317327467624
C 4.639688295014945 1.898180128346242 3.727631320831845
H 3.875894102387035 2.486866540326025 3.26398626683204
H 5.120958576091558 2.4746417116210138 4.489845828697588
H 5.3604417493382535 1.6061992694142724 2.9926744266732213
P 7.181017269699161 0.35522269368009907 -2.6853576287244474
O 7.643557302124105 -0.45802121936375917 -1.2660059230498304
O 6.897449456844056 1.0038875897843202 -3.79328240684554
O 5.923913177898116 -0.5273584459039953 -2.796442436090296
C 4.774087198038284 -1.3346223234514527 -2.8980475444580387
H 4.507648995641155 -1.699547119474382 -1.9281251992411597
H 3.9663973877433243 -0.7564564275167833 -3.2958579904291714
H 4.974773842378794 -2.1610887987556517 -3.5473371718829636
O 8.574104535258357 0.8428142041949891 -2.2458551948169525
C 9.848309225704439 1.2887958774754287 -1.8438587968938083
C 10.657204337581526 1.878612070520035 -2.9947424384509054
H 11.654928378003799 2.139322617850914 -2.653233229682115
H 10.738105268017208 1.1551677136587326 -3.8020543992072025
H 10.175590644599293 2.7766750624228265 -3.3792340161306047
H 9.755463368544298 2.0302273893160554 -1.0359629000989792
H 10.348802094813657 0.40472388534493886 -1.443043352204797