[]
 OpenBabel04292410473D

 57 57  0  0  1  0  0  0  0  0999 V2000
    2.9047   -0.9817    2.9062 C   0  0  0  0  0  0  0  0  0  0  0  0
    3.5606   -1.2604    1.2838 S   0  0  0  0  0  0  0  0  0  0  0  0
    5.6806   -1.2604    1.2838 P   0  0  1  0  0  0  0  0  0  0  0  0
    5.5952   -2.8072    0.6649 O   0  0  0  0  0  0  0  0  0  0  0  0
    6.1079   -3.8476    1.4843 C   0  0  0  0  0  0  0  0  0  0  0  0
    5.9026   -5.1723    0.7755 C   0  0  0  0  0  0  0  0  0  0  0  0
    5.6312    0.0384   -0.4684 S   0  0  0  0  0  0  0  0  0  0  0  0
    7.1335   -0.4044   -1.3466 C   0  0  0  0  0  0  0  0  0  0  0  0
    7.2289   -1.2604    1.2838 O   0  0  0  0  0  0  0  0  0  0  0  0
    1.8115   -0.9907    2.8519 H   0  0  0  0  0  0  0  0  0  0  0  0
    3.2288   -1.7375    3.6236 H   0  0  0  0  0  0  0  0  0  0  0  0
    5.5918   -3.8410    2.4489 H   0  0  0  0  0  0  0  0  0  0  0  0
    7.1790   -3.6964    1.6542 H   0  0  0  0  0  0  0  0  0  0  0  0
    4.8388   -5.3558    0.5991 H   0  0  0  0  0  0  0  0  0  0  0  0
    6.3133   -5.9954    1.3700 H   0  0  0  0  0  0  0  0  0  0  0  0
    6.3971   -5.1621   -0.2019 H   0  0  0  0  0  0  0  0  0  0  0  0
    7.1669   -1.4698   -1.5841 H   0  0  0  0  0  0  0  0  0  0  0  0
    8.0305   -0.1044   -0.7997 H   0  0  0  0  0  0  0  0  0  0  0  0
    2.9915    0.4890    3.4587 C   0  0  1  0  0  0  0  0  0  0  0  0
    2.2444    0.5179    4.7706 C   0  0  0  0  0  0  0  0  0  0  0  0
    3.0429    0.6810    5.8470 O   0  0  0  0  0  0  0  0  0  0  0  0
    4.2561    1.2202    3.9881 C   0  0  1  0  0  0  0  0  0  0  0  0
    4.3576    0.8504    5.4754 C   0  0  2  0  0  0  0  0  0  0  0  0
    1.0501    0.2889    4.8819 O   0  0  0  0  0  0  0  0  0  0  0  0
    5.1522   -0.4273    5.7727 C   0  0  0  0  0  0  0  0  0  0  0  0
    5.1234   -0.6377    6.8619 H   0  0  0  0  0  0  0  0  0  0  0  0
    4.7377   -1.3006    5.2345 H   0  0  0  0  0  0  0  0  0  0  0  0
    6.2154   -0.2987    5.4817 H   0  0  0  0  0  0  0  0  0  0  0  0
    4.8250    1.6911    6.0349 H   0  0  0  0  0  0  0  0  0  0  0  0
    2.5268    1.1598    2.6989 H   0  0  0  0  0  0  0  0  0  0  0  0
    5.5628    1.2943    3.2146 C   0  0  0  0  0  0  0  0  0  0  0  0
    6.1007    0.3387    3.2659 H   0  0  0  0  0  0  0  0  0  0  0  0
    5.3721    1.6093    2.1673 H   0  0  0  0  0  0  0  0  0  0  0  0
    6.2280    2.0473    3.6884 H   0  0  0  0  0  0  0  0  0  0  0  0
    3.9118    2.2857    4.0157 H   0  0  0  0  0  0  0  0  0  0  0  0
    7.3375    0.2623   -2.7011 C   0  0  0  0  0  0  0  0  0  0  0  0
    6.4889    0.9271   -3.4232 N   0  0  0  0  0  0  0  0  0  0  0  0
    5.1273    1.0492   -3.2030 N   0  0  0  0  0  0  0  0  0  0  0  0
    4.6189    2.3387   -3.1924 C   0  0  0  0  0  0  0  0  0  0  0  0
    5.4162    3.2437   -3.4083 O   0  0  0  0  0  0  0  0  0  0  0  0
    3.3018    2.7030   -2.9307 N   0  0  0  0  0  0  0  0  0  0  0  0
    8.3455    0.1837   -3.0956 H   0  0  0  0  0  0  0  0  0  0  0  0
    4.3420   -0.1839   -3.2737 C   0  0  0  0  0  0  0  0  0  0  0  0
    3.7346   -0.3509   -4.6708 C   0  0  0  0  0  0  0  0  0  0  0  0
    3.1616   -1.3006   -4.7183 H   0  0  0  0  0  0  0  0  0  0  0  0
    3.0726    0.4881   -4.9572 H   0  0  0  0  0  0  0  0  0  0  0  0
    4.5499   -0.3933   -5.4246 H   0  0  0  0  0  0  0  0  0  0  0  0
    3.6184   -0.2853   -2.4500 H   0  0  0  0  0  0  0  0  0  0  0  0
    5.0121   -1.0633   -3.1571 H   0  0  0  0  0  0  0  0  0  0  0  0
    2.9583    4.1222   -3.0432 C   0  0  0  0  0  0  0  0  0  0  0  0
    3.5857    4.7220   -2.3488 H   0  0  0  0  0  0  0  0  0  0  0  0
    3.1336    4.4675   -4.0847 H   0  0  0  0  0  0  0  0  0  0  0  0
    1.8973    4.3343   -2.7994 H   0  0  0  0  0  0  0  0  0  0  0  0
    2.2478    1.8053   -2.4685 C   0  0  0  0  0  0  0  0  0  0  0  0
    1.9785    1.0487   -3.2186 H   0  0  0  0  0  0  0  0  0  0  0  0
    2.5465    1.3454   -1.5032 H   0  0  0  0  0  0  0  0  0  0  0  0
    1.2998    2.3430   -2.2626 H   0  0  0  0  0  0  0  0  0  0  0  0
  1  2  1  0  0  0  0
  1 10  1  0  0  0  0
  1 11  1  0  0  0  0
  2  3  1  0  0  0  0
  3  4  1  0  0  0  0
  3  7  1  0  0  0  0
  3  9  2  1  0  0  0
  4  5  1  0  0  0  0
  5  6  1  0  0  0  0
  5 12  1  0  0  0  0
  5 13  1  0  0  0  0
  6 14  1  0  0  0  0
  6 15  1  0  0  0  0
  6 16  1  0  0  0  0
  7  8  1  0  0  0  0
  8 17  1  0  0  0  0
  8 18  1  0  0  0  0
 19  1  1  0  0  0  0
 19 20  1  0  0  0  0
 19 22  1  0  0  0  0
 19 30  1  6  0  0  0
 20 21  1  0  0  0  0
 20 24  2  0  0  0  0
 21 23  1  0  0  0  0
 22 23  1  0  0  0  0
 22 35  1  1  0  0  0
 23 29  1  1  0  0  0
 25 23  1  0  0  0  0
 25 28  1  0  0  0  0
 25 26  1  0  0  0  0
 27 25  1  0  0  0  0
 31 22  1  0  0  0  0
 31 34  1  0  0  0  0
 31 32  1  0  0  0  0
 33 31  1  0  0  0  0
 36  8  1  0  0  0  0
 36 37  2  0  0  0  0
 37 38  1  0  0  0  0
 38 39  1  0  0  0  0
 39 40  2  0  0  0  0
 39 41  1  0  0  0  0
 42 36  1  0  0  0  0
 43 38  1  0  0  0  0
 43 49  1  0  0  0  0
 44 43  1  0  0  0  0
 44 47  1  0  0  0  0
 44 45  1  0  0  0  0
 46 44  1  0  0  0  0
 48 43  1  0  0  0  0
 50 41  1  0  0  0  0
 50 53  1  0  0  0  0
 50 51  1  0  0  0  0
 52 50  1  0  0  0  0
 54 41  1  0  0  0  0
 54 57  1  0  0  0  0
 54 55  1  0  0  0  0
 56 54  1  0  0  0  0
M  END
