 energy: -25.316149832743 gnorm: 0.000523875667 xtb: 6.6.1 (8d0f1dd)
          03292413223D

 11 10  0     0  0            999 V2000
   -5.6243    2.4313    0.2566 C   0  0  0  0  0  0  0  0  0  0  0  0
   -4.2028    2.0874   -0.0367 C   0  0  0  0  0  0  0  0  0  0  0  0
   -3.7830    1.9097   -2.0352 Br  0  0  0  0  0  0  0  0  0  0  0  0
   -5.7235    3.4902   -1.3654 H   0  0  0  0  0  0  0  0  0  0  0  0
   -6.0341    3.4916   -0.4321 O   0  0  0  0  0  0  0  0  0  0  0  0
   -3.3081    3.0756    0.4332 N   0  0  0  0  0  0  0  0  0  0  0  0
   -3.6770    0.3863    0.8489 Br  0  0  0  0  0  0  0  0  0  0  0  0
   -6.8303    0.6923   -0.6006 Br  0  0  0  0  0  0  0  0  0  0  0  0
   -6.0944    1.0014    1.6632 Li  0  0  0  0  0  0  0  0  0  0  0  0
   -3.3506    3.9389   -0.0941 H   0  0  0  0  0  0  0  0  0  0  0  0
   -3.3820    3.2465    1.4286 H   0  0  0  0  0  0  0  0  0  0  0  0
  1  2  1  0  0  0  0
  2  3  1  0  0  0  0
  5  4  1  0  0  0  0
  1  5  1  0  0  0  0
  2  6  1  0  0  0  0
  2  7  1  0  0  0  0
  1  8  1  0  0  0  0
  1  9  1  0  0  0  0
  6 10  1  0  0  0  0
  6 11  1  0  0  0  0
M  END
