/Users/markheezen/Applications/chemspax/chemspax/substituents_xyz/manually_generated/CH3.xyz
 OpenBabel03282415133D

  4  3  0  0  0  0  0  0  0  0999 V2000
   -2.0663    1.2669    0.0000 C   0  0  0  0  0  3  0  0  0  0  0  0
   -1.7097    1.7713    0.8737 H   0  0  0  0  0  0  0  0  0  0  0  0
   -1.7097    1.7713   -0.8737 H   0  0  0  0  0  0  0  0  0  0  0  0
   -3.1363    1.2669    0.0000 H   0  0  0  0  0  0  0  0  0  0  0  0
  1  4  1  0  0  0  0
  1  2  1  0  0  0  0
  3  1  1  0  0  0  0
M  END
